
Spectre (R) Circuit Simulator
Version 18.1.0.556.isr13 64bit -- 10 Dec 2019
Copyright (C) 1989-2019 Cadence Design Systems, Inc. All rights reserved worldwide. Cadence and Spectre are registered trademarks of Cadence Design Systems, Inc. All others are the property of their respective holders.

Includes RSA BSAFE(R) Cryptographic or Security Protocol Software from RSA Security, Inc.

User: edauser85   Host: selsrv2.epfl.ch   HostID: B28006F2   PID: 14013
Memory  available: 47.5330 GB  physical: 134.9216 GB
Linux   : Red Hat Enterprise Linux Server release 7.9 (Maipo)
CPU Type: Intel(R) Xeon(R) CPU E5-2650 v4 @ 2.20GHz
        Socket: Processors [Frequency] (Hyperthreaded Processor)
        0:       0 [2765.4] ( 24 ),  2 [2849.5] ( 26 ),  4 [2337.4] ( 28 )
                 6 [2423.3] ( 30 ),  8 [1854.8] ( 32 ), 10 [2747.0] ( 34 )
                12 [2754.2] ( 36 ), 14 [2240.3] ( 38 ), 16 [2175.3] ( 40 )
                18 [2747.7] ( 42 ), 20 [2575.4] ( 44 ), 22 [2382.9] ( 46 )
        1:       1 [1559.0] ( 25 ),  3 [2437.0] ( 27 ),  5 [2886.2] ( 29 )
                 7 [2650.8] ( 31 ),  9 [2688.9] ( 33 ), 11 [2685.0] ( 35 )
                13 [2692.7] ( 37 ), 15 [2795.9] ( 39 ), 17 [1808.7] ( 41 )
                19 [2858.6] ( 43 ), 21 [1497.1] ( 45 ), 23 [2361.8] ( 47 )
        
System load averages (1min, 5min, 15min) : 0.5 %, 0.4 %, 0.4 %
Hyperthreading is enabled


Simulating `input.scs' on selsrv2.epfl.ch at 12:12:09 AM, Thur Dec 22, 2022 (process id: 14013).
Current working directory: /home/edauser85/2022_project/CDS_VISIO/Sim/project_common/INV_tb/adexl/results/data/Interactive.37/1/project_common:INV_tb:1/netlist
Command line:
    /softs/cadence/spectre/18.10/tools/bin/spectre -64 input.scs  \
        +escchars +log ../psf/spectre.out -format psfxl -raw ../psf  \
        +lqtimeout 900 -maxw 5 -maxn 5 -ahdllibdir  \
        /home/edauser85/2022_project/CDS_VISIO/Sim/project_common/INV_tb/adexl/results/data/Interactive.37/sharedData/Job0/ahdl/input.ahdlSimDB  \
        +logstatus

Loading /softs/cadence/spectre/18.10/tools.lnx86/cmi/lib/64bit/5.0/libinfineon_sh.so ...
Loading /softs/cadence/spectre/18.10/tools.lnx86/cmi/lib/64bit/5.0/libphilips_o_sh.so ...
Loading /softs/cadence/spectre/18.10/tools.lnx86/cmi/lib/64bit/5.0/libphilips_sh.so ...
Loading /softs/cadence/spectre/18.10/tools.lnx86/cmi/lib/64bit/5.0/libsparam_sh.so ...
Loading /softs/cadence/spectre/18.10/tools.lnx86/cmi/lib/64bit/5.0/libstmodels_sh.so ...
Reading file:  /home/edauser85/2022_project/CDS_VISIO/Sim/project_common/INV_tb/adexl/results/data/Interactive.37/1/project_common:INV_tb:1/netlist/input.scs
Reading file:  /softs/cadence/spectre/18.10/tools.lnx86/spectre/etc/configs/spectre.cfg
Reading file:  /dkits/umc/65nm/lms65ll/pdk_b09pb/Models/Spectre/l65ll_v151.lib.scs

Warning from spectre in `momcaps_symesh_mmkf', during circuit read-in.
    WARNING (SFE-2296): "/dkits/umc/65nm/lms65ll/pdk_b09pb/umc65ll/../Models/Spectre/l65ll_v151.lib.scs" 13269: The inline subckt definition `momcaps_symesh_mmkf' does not contain any inline components. The `inline' qualifier will therefore be ignored.
Warning from spectre in `momcaps_asmesh_mmkf', during circuit read-in.
    WARNING (SFE-2296): "/dkits/umc/65nm/lms65ll/pdk_b09pb/umc65ll/../Models/Spectre/l65ll_v151.lib.scs" 13355: The inline subckt definition `momcaps_asmesh_mmkf' does not contain any inline components. The `inline' qualifier will therefore be ignored.

Reading file:  /dkits/umc/65nm/lms65ll/pdk_b09pb/Models/Spectre/l65ll_res_v131_s.va
Reading link:  /softs/cadence/spectre/18.10/tools.lnx86/spectre/etc/ahdl/constants.h
Reading file:  /softs/cadence/spectre/18.10/tools.lnx86/spectre/etc/ahdl/constants.vams
Reading link:  /softs/cadence/spectre/18.10/tools.lnx86/spectre/etc/ahdl/discipline.h
Reading file:  /softs/cadence/spectre/18.10/tools.lnx86/spectre/etc/ahdl/disciplines.vams
Reading file:  /dkits/umc/65nm/lms65ll/pdk_b09pb/Models/Spectre/L65LL_RVT12_V101_RF.lib.scs
Reading file:  /dkits/umc/65nm/lms65ll/pdk_b09pb/Models/Spectre/L65LL_RVT12_V101_RF.mdl.scs
Reading file:  /dkits/umc/65nm/lms65ll/pdk_b09pb/Models/Spectre/Rde65.va
Reading file:  /dkits/umc/65nm/lms65ll/pdk_b09pb/Models/Spectre/L65LL_HVT12_V101_RF.lib.scs
Reading file:  /dkits/umc/65nm/lms65ll/pdk_b09pb/Models/Spectre/L65LL_HVT12_V101_RF.mdl.scs
Reading file:  /dkits/umc/65nm/lms65ll/pdk_b09pb/Models/Spectre/Rde_llhvtrfs.va
Reading file:  /dkits/umc/65nm/lms65ll/pdk_b09pb/Models/Spectre/L65LL_LVT12_V101_RF.lib.scs
Reading file:  /dkits/umc/65nm/lms65ll/pdk_b09pb/Models/Spectre/L65LL_LVT12_V101_RF.mdl.scs
Reading file:  /dkits/umc/65nm/lms65ll/pdk_b09pb/Models/Spectre/l65rflvt101s.va
Reading file:  /dkits/umc/65nm/lms65ll/pdk_b09pb/Models/Spectre/L65LL_IO18_V101_RF.lib.scs
Reading file:  /dkits/umc/65nm/lms65ll/pdk_b09pb/Models/Spectre/L65LL_IO18_V101_RF.mdl.scs
Reading file:  /dkits/umc/65nm/lms65ll/pdk_b09pb/Models/Spectre/L65LL_IO25_V101_RF.lib.scs
Reading file:  /dkits/umc/65nm/lms65ll/pdk_b09pb/Models/Spectre/L65LL_IO25_V101_RF.mdl.scs
Reading file:  /dkits/umc/65nm/lms65ll/pdk_b09pb/Models/Spectre/l65ll_25rf_101_s.va
Reading file:  /dkits/umc/65nm/lms65ll/pdk_b09pb/Models/Spectre/L65LL_IO33_V111_RF.lib.scs
Reading file:  /dkits/umc/65nm/lms65ll/pdk_b09pb/Models/Spectre/L65LL_IO33_V111_RF.mdl.scs
Reading file:  /dkits/umc/65nm/lms65ll/pdk_b09pb/Models/Spectre/Rde65LL_IO33_111.va.scs

Warning from spectre in `p_33_llrf', during circuit read-in.
    WARNING (SFE-2296): "/dkits/umc/65nm/lms65ll/pdk_b09pb/umc65ll/../Models/Spectre/L65LL_IO33_V111_RF.mdl.scs" 490: The inline subckt definition `p_33_llrf' does not contain any inline components. The `inline' qualifier will therefore be ignored.

Reading file:  /dkits/umc/65nm/lms65ll/pdk_b09pb/Models/Spectre/L65LL_VARMIS12_V111_RF.lib.scs
Reading file:  /dkits/umc/65nm/lms65ll/pdk_b09pb/Models/Spectre/L65LL_VARMIS12_V111_RF.mdl.scs
Reading file:  /dkits/umc/65nm/lms65ll/pdk_b09pb/Models/Spectre/L65LL_VARMIS18_V111_RF.lib.scs
Reading file:  /dkits/umc/65nm/lms65ll/pdk_b09pb/Models/Spectre/L65LL_VARMIS18_V111_RF.mdl.scs
Reading file:  /dkits/umc/65nm/lms65ll/pdk_b09pb/Models/Spectre/L65LL_VARMIS25_V121_RF.lib.scs
Reading file:  /dkits/umc/65nm/lms65ll/pdk_b09pb/Models/Spectre/L65LL_VARMIS25_V121_RF.mdl.scs
Reading file:  /dkits/umc/65nm/lms65ll/pdk_b09pb/Models/Spectre/L65LL_VARMIS33_V111_RF.lib.scs
Reading file:  /dkits/umc/65nm/lms65ll/pdk_b09pb/Models/Spectre/L65LL_VARMIS33_V111_RF.mdl.scs
Reading file:  /dkits/umc/65nm/lms65ll/pdk_b09pb/Models/Spectre/L65LL_VARDIOP_V101_RF.lib.scs
Reading file:  /dkits/umc/65nm/lms65ll/pdk_b09pb/Models/Spectre/L65LL_VARDIOP_V101_RF.mdl.scs
Reading file:  /dkits/umc/65nm/lms65ll/pdk_b09pb/Models/Spectre/momcaps_array_vp3_rfvcl_V101.lib.scs
Reading file:  /dkits/umc/65nm/lms65ll/pdk_b09pb/Models/Spectre/momcaps_array_vp3_rfvcl_V101.typ.scs
Reading file:  /dkits/umc/65nm/lms65ll/pdk_b09pb/Models/Spectre/momcaps_array_vp4_rfvcl_V101.lib.scs
Reading file:  /dkits/umc/65nm/lms65ll/pdk_b09pb/Models/Spectre/momcaps_array_vp4_rfvcl_V101.typ.scs
Reading file:  /dkits/umc/65nm/lms65ll/pdk_b09pb/Models/Spectre/momcaps_array_vp5_rfvcl_V101.lib.scs
Reading file:  /dkits/umc/65nm/lms65ll/pdk_b09pb/Models/Spectre/momcaps_array_vp5_rfvcl_V101.typ.scs
Reading file:  /dkits/umc/65nm/lms65ll/pdk_b09pb/Models/Spectre/L65_MIMCAPS_20F_KF_V101_RF.lib.scs
Reading file:  /dkits/umc/65nm/lms65ll/pdk_b09pb/Models/Spectre/L65_MIMCAPS_20F_KF_V101_RF.mdl.scs
Reading file:  /dkits/umc/65nm/lms65ll/pdk_b09pb/Models/Spectre/L65LL_RNPPO_V101_RF.lib.scs
Reading file:  /dkits/umc/65nm/lms65ll/pdk_b09pb/Models/Spectre/L65LL_RNPPO_V101_RF.mdl.scs
Reading file:  /dkits/umc/65nm/lms65ll/pdk_b09pb/Models/Spectre/res_poly.va
Reading file:  /dkits/umc/65nm/lms65ll/pdk_b09pb/Models/Spectre/L65LL_RNNPO_V101_RF.lib.scs
Reading file:  /dkits/umc/65nm/lms65ll/pdk_b09pb/Models/Spectre/L65LL_RNNPO_V101_RF.mdl.scs
Reading file:  /dkits/umc/65nm/lms65ll/pdk_b09pb/Models/Spectre/L65LL_RNHR_V101_RF.lib.scs
Reading file:  /dkits/umc/65nm/lms65ll/pdk_b09pb/Models/Spectre/L65LL_RNHR_V101_RF.mdl.scs
Reading file:  /dkits/umc/65nm/lms65ll/pdk_b09pb/Models/Spectre/L65_pad_rf_V101.lib.scs
Reading file:  /dkits/umc/65nm/lms65ll/pdk_b09pb/Models/Spectre/L65_pad_rf_V101.mdl.scs
Time for NDB Parsing: CPU = 701.182 ms, elapsed = 831.646 ms.
Time accumulated: CPU = 747.598 ms, elapsed = 831.652 ms.
Peak resident memory used = 64.4 Mbytes.


Warning from spectre during circuit read-in.
    WARNING (SFE-2654): VerilogA module `respoly_va' override primitive/(verilogA module) `respoly_va'.
    WARNING (SFE-2654): VerilogA module `respoly_va' override primitive/(verilogA module) `respoly_va'.
Warning from spectre during hierarchy flattening.
    WARNING (SFE-102): "input.scs" 61: Parameter `mis_flag', specified for model `p_12_llrvt' of primitive `bsim4', has been ignored because it is an invalid model parameter. Specify a valid model parameter and rerun the simulation. Type `spectre -h bsim4' to get more information on valid model parameters.
    WARNING (SFE-102): "input.scs" 61: Parameter `mf', specified for model `p_12_llrvt' of primitive `bsim4', has been ignored because it is an invalid model parameter. Specify a valid model parameter and rerun the simulation. Type `spectre -h bsim4' to get more information on valid model parameters.
    WARNING (SFE-102): "input.scs" 64: Parameter `mis_flag', specified for model `n_12_llrvt' of primitive `bsim4', has been ignored because it is an invalid model parameter. Specify a valid model parameter and rerun the simulation. Type `spectre -h bsim4' to get more information on valid model parameters.
    WARNING (SFE-102): "input.scs" 64: Parameter `mf', specified for model `n_12_llrvt' of primitive `bsim4', has been ignored because it is an invalid model parameter. Specify a valid model parameter and rerun the simulation. Type `spectre -h bsim4' to get more information on valid model parameters.

Time for Elaboration: CPU = 24.919 ms, elapsed = 25.82 ms.
Time accumulated: CPU = 772.645 ms, elapsed = 857.6 ms.
Peak resident memory used = 72.1 Mbytes.


Warning from spectre during hierarchy flattening.
    WARNING (SPECTRE-17101): The value 'psf' specified using the 'checklimitdest' option will no longer be supported in future releases.


Time for EDB Visiting: CPU = 982 us, elapsed = 982.046 us.
Time accumulated: CPU = 773.753 ms, elapsed = 858.707 ms.
Peak resident memory used = 72.9 Mbytes.


Global user options:
         psfversion = 1.1.0
            vabstol = 1e-06
            iabstol = 1e-12
               temp = 27
               gmin = 1e-12
             rforce = 1
           maxnotes = 5
           maxwarns = 5
             digits = 5
               cols = 80
             pivrel = 0.001
           sensfile = ../psf/sens.output
     checklimitdest = psf
               save = allpub
             reltol = 0.001
               tnom = 27
             scalem = 1
              scale = 1

Scoped user options:

Circuit inventory:
              nodes 3
              bsim4 2     
          capacitor 1     
            vsource 2     

Analysis and control statement inventory:
               info 7     
               tran 1     

Output statements:
             .probe 0     
           .measure 0     
               save 0     

Time for parsing: CPU = 3.101 ms, elapsed = 4.66895 ms.
Time accumulated: CPU = 776.957 ms, elapsed = 863.479 ms.
Peak resident memory used = 74.6 Mbytes.

~~~~~~~~~~~~~~~~~~~~~~
Pre-Simulation Summary
~~~~~~~~~~~~~~~~~~~~~~
~~~~~~~~~~~~~~~~~~~~~~

*************************************************
Transient Analysis `tran': time = (0 s -> 100 ns)
*************************************************
DC simulation time: CPU = 487 us, elapsed = 487.804 us.

Opening the PSFXL file ../psf/tran.tran.tran ...
Important parameter values:
    start = 0 s
    outputstart = 0 s
    stop = 100 ns
    step = 100 ps
    maxstep = 1 ns
    ic = all
    useprevic = no
    skipdc = no
    reltol = 100e-06
    abstol(V) = 1 uV
    abstol(I) = 1 pA
    temp = 27 C
    tnom = 27 C
    tempeffects = all
    errpreset = conservative
    method = gear2only
    lteratio = 10
    relref = alllocal
    cmin = 0 F
    gmin = 1 pS


Output and IC/nodeset summary:
                 save   2       (current)
                 save   3       (voltage)

    tran: time = 3.38 ns     (3.38 %), step = 1 ns            (1 %)
    tran: time = 8.334 ns    (8.33 %), step = 1 ns            (1 %)
    tran: time = 12.62 ns    (12.6 %), step = 1 ns            (1 %)
    tran: time = 18.41 ns    (18.4 %), step = 1 ns            (1 %)
    tran: time = 22.64 ns    (22.6 %), step = 1 ns            (1 %)
    tran: time = 28.47 ns    (28.5 %), step = 1 ns            (1 %)
    tran: time = 32.84 ns    (32.8 %), step = 1 ns            (1 %)
    tran: time = 38.32 ns    (38.3 %), step = 1 ns            (1 %)
    tran: time = 43.05 ns      (43 %), step = 1 ns            (1 %)
    tran: time = 48.43 ns    (48.4 %), step = 1 ns            (1 %)
    tran: time = 52.84 ns    (52.8 %), step = 1 ns            (1 %)
    tran: time = 58.46 ns    (58.5 %), step = 1 ns            (1 %)
    tran: time = 63.42 ns    (63.4 %), step = 1 ns            (1 %)
    tran: time = 68.4 ns     (68.4 %), step = 1 ns            (1 %)
    tran: time = 72.64 ns    (72.6 %), step = 1 ns            (1 %)
    tran: time = 78.47 ns    (78.5 %), step = 1 ns            (1 %)
    tran: time = 82.83 ns    (82.8 %), step = 1 ns            (1 %)
    tran: time = 88.32 ns    (88.3 %), step = 1 ns            (1 %)
    tran: time = 93.05 ns      (93 %), step = 1 ns            (1 %)
    tran: time = 98.43 ns    (98.4 %), step = 1 ns            (1 %)
Number of accepted tran steps =             1031

Maximum value achieved for any signal of each quantity: 
V: V(PM0:int_d) = 1.022 V
I: I(V1:p) = 9.584 uA

~~~~~~~~~~~~~~~~~~~~~~~~~~~~~~~~~
Post-Transient Simulation Summary
~~~~~~~~~~~~~~~~~~~~~~~~~~~~~~~~~
   -   To further speed up simulation, consider
          add ++aps on command line
   -   Non-default settings that could significantly slow down simulation
          errpreset = conservative, default moderate
~~~~~~~~~~~~~~~~~~~~~~~~~~~~~~~~~


During simulation, the CPU load for active processors is :
        Spectre  0 (1.2 %)       9 (1.1 %)      10 (2.3 %)      13 (1.2 %)
                14 (5.8 %)      16 (3.5 %)      18 (59.3 %)     22 (4.7 %)
                23 (2.3 %)      42 (22.6 %)     44 (2.3 %)      
        Other   
Initial condition solution time: CPU = 571 us, elapsed = 572.92 us.
Intrinsic tran analysis time:    CPU = 56.661 ms, elapsed = 63.803 ms.
Total time required for tran analysis `tran': CPU = 59.474 ms, elapsed = 69.469 ms.
Time accumulated: CPU = 842.589 ms, elapsed = 945.768 ms.
Peak resident memory used = 77.3 Mbytes.

finalTimeOP: writing operating point information to rawfile.

Opening the PSF file ../psf/finalTimeOP.info ...
modelParameter: writing model parameter values to rawfile.

Opening the PSF file ../psf/modelParameter.info ...
element: writing instance parameter values to rawfile.

Opening the PSF file ../psf/element.info ...
outputParameter: writing output parameter values to rawfile.

Opening the PSF file ../psf/outputParameter.info ...
designParamVals: writing netlist parameters to rawfile.

Opening the PSFASCII file ../psf/designParamVals.info ...
primitives: writing primitives to rawfile.

Opening the PSFASCII file ../psf/primitives.info.primitives ...
subckts: writing subcircuits to rawfile.

Opening the PSFASCII file ../psf/subckts.info.subckts ...

Aggregate audit (12:12:10 AM, Thur Dec 22, 2022):
Time used: CPU = 863 ms, elapsed = 983 ms, util. = 87.7%.
Time spent in licensing: elapsed = 12.9 ms.
Peak memory used = 78.9 Mbytes.
Simulation started at: 12:12:09 AM, Thur Dec 22, 2022, ended at: 12:12:10 AM, Thur Dec 22, 2022, with elapsed time (wall clock): 983 ms.
spectre completes with 0 errors, 10 warnings, and 1 notice.
