
Spectre (R) Circuit Simulator
Version 18.1.0.556.isr13 64bit -- 10 Dec 2019
Copyright (C) 1989-2019 Cadence Design Systems, Inc. All rights reserved worldwide. Cadence and Spectre are registered trademarks of Cadence Design Systems, Inc. All others are the property of their respective holders.

Includes RSA BSAFE(R) Cryptographic or Security Protocol Software from RSA Security, Inc.

User: edauser0   Host: selsrv1.epfl.ch   HostID: B28005F2   PID: 25695
Memory  available: 10.3098 GB  physical: 134.9217 GB
Linux   : Red Hat Enterprise Linux Server release 7.8 (Maipo)
CPU Type: Intel(R) Xeon(R) CPU E5-2650 v4 @ 2.20GHz
        Socket: Processors [Frequency] (Hyperthreaded Processor)
        0:       0 [2159.3] ( 24 ),  2 [2482.9] ( 26 ),  4 [2559.3] ( 28 )
                 6 [2665.7] ( 30 ),  8 [2517.3] ( 32 ), 10 [2500.9] ( 34 )
                12 [2514.6] ( 36 ), 14 [2588.6] ( 38 ), 16 [1997.2] ( 40 )
                18 [2501.2] ( 42 ), 20 [2711.6] ( 44 ), 22 [2663.0] ( 46 )
        1:       1 [2500.2] ( 25 ),  3 [2554.1] ( 27 ),  5 [2599.6] ( 29 )
                 7 [2575.4] ( 31 ),  9 [2531.5] ( 33 ), 11 [2668.9] ( 35 )
                13 [2792.3] ( 37 ), 15 [2609.0] ( 39 ), 17 [2883.9] ( 41 )
                19 [2744.4] ( 43 ), 21 [2606.7] ( 45 ), 23 [2816.9] ( 47 )
        
System load averages (1min, 5min, 15min) : 1.3 %, 1.3 %, 1.6 %
Hyperthreading is enabled
HPC is enabled


Simulating `input.scs' on selsrv1.epfl.ch at 4:26:39 PM, Fri Dec 17, 2021 (process id: 25695).
Current working directory: /home/edauser0/ayigit/RowDecoder_Project/CDS_VISIO/Sim/project_1x/RowDecoder_256_1xP_TB/adexl/results/data/Interactive.40/1/project_1x:RowDecoder_256_1xP_TB:1/netlist
Command line:
    /softs/cadence/spectre/18.10/tools/bin/spectre -64 input.scs  \
        +escchars +log ../psf/spectre.out -format psfxl -raw ../psf  \
        ++aps +lqtimeout 900 -maxw 5 -maxn 5 -ahdllibdir  \
        /home/edauser0/ayigit/RowDecoder_Project/CDS_VISIO/Sim/project_1x/RowDecoder_256_1xP_TB/adexl/results/data/Interactive.40/sharedData/CDS/ahdl/input.ahdlSimDB  \
        +logstatus

Loading /softs/cadence/spectre/18.10/tools.lnx86/cmi/lib/64bit/5.0/libinfineon_sh.so ...
Loading /softs/cadence/spectre/18.10/tools.lnx86/cmi/lib/64bit/5.0/libphilips_o_sh.so ...
Loading /softs/cadence/spectre/18.10/tools.lnx86/cmi/lib/64bit/5.0/libphilips_sh.so ...
Loading /softs/cadence/spectre/18.10/tools.lnx86/cmi/lib/64bit/5.0/libsparam_sh.so ...
Loading /softs/cadence/spectre/18.10/tools.lnx86/cmi/lib/64bit/5.0/libstmodels_sh.so ...
Reading file:  /home/edauser0/ayigit/RowDecoder_Project/CDS_VISIO/Sim/project_1x/RowDecoder_256_1xP_TB/adexl/results/data/Interactive.40/1/project_1x:RowDecoder_256_1xP_TB:1/netlist/input.scs
Reading file:  /softs/cadence/spectre/18.10/tools.lnx86/spectre/etc/configs/spectre.cfg
Reading file:  /dkits/umc/65nm/lms65ll/pdk_b09pb/Models/Spectre/l65ll_v151.lib.scs

Warning from spectre in `momcaps_symesh_mmkf', during circuit read-in.
    WARNING (SFE-2296): "/dkits/umc/65nm/lms65ll/pdk_b09pb/umc65ll/../Models/Spectre/l65ll_v151.lib.scs" 13269: The inline subckt definition `momcaps_symesh_mmkf' does not contain any inline components. The `inline' qualifier will therefore be ignored.
Warning from spectre in `momcaps_asmesh_mmkf', during circuit read-in.
    WARNING (SFE-2296): "/dkits/umc/65nm/lms65ll/pdk_b09pb/umc65ll/../Models/Spectre/l65ll_v151.lib.scs" 13355: The inline subckt definition `momcaps_asmesh_mmkf' does not contain any inline components. The `inline' qualifier will therefore be ignored.

Reading file:  /dkits/umc/65nm/lms65ll/pdk_b09pb/Models/Spectre/l65ll_res_v131_s.va
Reading link:  /softs/cadence/spectre/18.10/tools.lnx86/spectre/etc/ahdl/constants.h
Reading file:  /softs/cadence/spectre/18.10/tools.lnx86/spectre/etc/ahdl/constants.vams
Reading link:  /softs/cadence/spectre/18.10/tools.lnx86/spectre/etc/ahdl/discipline.h
Reading file:  /softs/cadence/spectre/18.10/tools.lnx86/spectre/etc/ahdl/disciplines.vams
Reading file:  /dkits/umc/65nm/lms65ll/pdk_b09pb/Models/Spectre/L65LL_RVT12_V101_RF.lib.scs
Reading file:  /dkits/umc/65nm/lms65ll/pdk_b09pb/Models/Spectre/L65LL_RVT12_V101_RF.mdl.scs
Reading file:  /dkits/umc/65nm/lms65ll/pdk_b09pb/Models/Spectre/Rde65.va
Reading file:  /dkits/umc/65nm/lms65ll/pdk_b09pb/Models/Spectre/L65LL_HVT12_V101_RF.lib.scs
Reading file:  /dkits/umc/65nm/lms65ll/pdk_b09pb/Models/Spectre/L65LL_HVT12_V101_RF.mdl.scs
Reading file:  /dkits/umc/65nm/lms65ll/pdk_b09pb/Models/Spectre/Rde_llhvtrfs.va
Reading file:  /dkits/umc/65nm/lms65ll/pdk_b09pb/Models/Spectre/L65LL_LVT12_V101_RF.lib.scs
Reading file:  /dkits/umc/65nm/lms65ll/pdk_b09pb/Models/Spectre/L65LL_LVT12_V101_RF.mdl.scs
Reading file:  /dkits/umc/65nm/lms65ll/pdk_b09pb/Models/Spectre/l65rflvt101s.va
Reading file:  /dkits/umc/65nm/lms65ll/pdk_b09pb/Models/Spectre/L65LL_IO18_V101_RF.lib.scs
Reading file:  /dkits/umc/65nm/lms65ll/pdk_b09pb/Models/Spectre/L65LL_IO18_V101_RF.mdl.scs
Reading file:  /dkits/umc/65nm/lms65ll/pdk_b09pb/Models/Spectre/L65LL_IO25_V101_RF.lib.scs
Reading file:  /dkits/umc/65nm/lms65ll/pdk_b09pb/Models/Spectre/L65LL_IO25_V101_RF.mdl.scs
Reading file:  /dkits/umc/65nm/lms65ll/pdk_b09pb/Models/Spectre/l65ll_25rf_101_s.va
Reading file:  /dkits/umc/65nm/lms65ll/pdk_b09pb/Models/Spectre/L65LL_IO33_V111_RF.lib.scs
Reading file:  /dkits/umc/65nm/lms65ll/pdk_b09pb/Models/Spectre/L65LL_IO33_V111_RF.mdl.scs
Reading file:  /dkits/umc/65nm/lms65ll/pdk_b09pb/Models/Spectre/Rde65LL_IO33_111.va.scs

Warning from spectre in `p_33_llrf', during circuit read-in.
    WARNING (SFE-2296): "/dkits/umc/65nm/lms65ll/pdk_b09pb/umc65ll/../Models/Spectre/L65LL_IO33_V111_RF.mdl.scs" 490: The inline subckt definition `p_33_llrf' does not contain any inline components. The `inline' qualifier will therefore be ignored.

Reading file:  /dkits/umc/65nm/lms65ll/pdk_b09pb/Models/Spectre/L65LL_VARMIS12_V111_RF.lib.scs
Reading file:  /dkits/umc/65nm/lms65ll/pdk_b09pb/Models/Spectre/L65LL_VARMIS12_V111_RF.mdl.scs
Reading file:  /dkits/umc/65nm/lms65ll/pdk_b09pb/Models/Spectre/L65LL_VARMIS18_V111_RF.lib.scs
Reading file:  /dkits/umc/65nm/lms65ll/pdk_b09pb/Models/Spectre/L65LL_VARMIS18_V111_RF.mdl.scs
Reading file:  /dkits/umc/65nm/lms65ll/pdk_b09pb/Models/Spectre/L65LL_VARMIS25_V121_RF.lib.scs
Reading file:  /dkits/umc/65nm/lms65ll/pdk_b09pb/Models/Spectre/L65LL_VARMIS25_V121_RF.mdl.scs
Reading file:  /dkits/umc/65nm/lms65ll/pdk_b09pb/Models/Spectre/L65LL_VARMIS33_V111_RF.lib.scs
Reading file:  /dkits/umc/65nm/lms65ll/pdk_b09pb/Models/Spectre/L65LL_VARMIS33_V111_RF.mdl.scs
Reading file:  /dkits/umc/65nm/lms65ll/pdk_b09pb/Models/Spectre/L65LL_VARDIOP_V101_RF.lib.scs
Reading file:  /dkits/umc/65nm/lms65ll/pdk_b09pb/Models/Spectre/L65LL_VARDIOP_V101_RF.mdl.scs
Reading file:  /dkits/umc/65nm/lms65ll/pdk_b09pb/Models/Spectre/momcaps_array_vp3_rfvcl_V101.lib.scs
Reading file:  /dkits/umc/65nm/lms65ll/pdk_b09pb/Models/Spectre/momcaps_array_vp3_rfvcl_V101.typ.scs
Reading file:  /dkits/umc/65nm/lms65ll/pdk_b09pb/Models/Spectre/momcaps_array_vp4_rfvcl_V101.lib.scs
Reading file:  /dkits/umc/65nm/lms65ll/pdk_b09pb/Models/Spectre/momcaps_array_vp4_rfvcl_V101.typ.scs
Reading file:  /dkits/umc/65nm/lms65ll/pdk_b09pb/Models/Spectre/momcaps_array_vp5_rfvcl_V101.lib.scs
Reading file:  /dkits/umc/65nm/lms65ll/pdk_b09pb/Models/Spectre/momcaps_array_vp5_rfvcl_V101.typ.scs
Reading file:  /dkits/umc/65nm/lms65ll/pdk_b09pb/Models/Spectre/L65_MIMCAPS_20F_KF_V101_RF.lib.scs
Reading file:  /dkits/umc/65nm/lms65ll/pdk_b09pb/Models/Spectre/L65_MIMCAPS_20F_KF_V101_RF.mdl.scs
Reading file:  /dkits/umc/65nm/lms65ll/pdk_b09pb/Models/Spectre/L65LL_RNPPO_V101_RF.lib.scs
Reading file:  /dkits/umc/65nm/lms65ll/pdk_b09pb/Models/Spectre/L65LL_RNPPO_V101_RF.mdl.scs
Reading file:  /dkits/umc/65nm/lms65ll/pdk_b09pb/Models/Spectre/res_poly.va
Reading file:  /dkits/umc/65nm/lms65ll/pdk_b09pb/Models/Spectre/L65LL_RNNPO_V101_RF.lib.scs
Reading file:  /dkits/umc/65nm/lms65ll/pdk_b09pb/Models/Spectre/L65LL_RNNPO_V101_RF.mdl.scs
Reading file:  /dkits/umc/65nm/lms65ll/pdk_b09pb/Models/Spectre/L65LL_RNHR_V101_RF.lib.scs
Reading file:  /dkits/umc/65nm/lms65ll/pdk_b09pb/Models/Spectre/L65LL_RNHR_V101_RF.mdl.scs
Reading file:  /dkits/umc/65nm/lms65ll/pdk_b09pb/Models/Spectre/L65_pad_rf_V101.lib.scs
Reading file:  /dkits/umc/65nm/lms65ll/pdk_b09pb/Models/Spectre/L65_pad_rf_V101.mdl.scs
Reading file:  /home/edauser0/ayigit/RowDecoder_Project/CDS_VISIO/project_1x/Post_L8_256t8_Pex/spectreText/spectre.scs
Reading file:  /home/edauser0/ayigit/RowDecoder_Project/CDS_VISIO/project_1x/Post_L8_256t8_Pex/spectreText/spectre.scs.pex
Reading file:  /home/edauser0/ayigit/RowDecoder_Project/CDS_VISIO/project_1x/Post_L8_256t8_Pex/spectreText/spectre.scs.POST_L8_256T8_PEX.pxi
Time for NDB Parsing: CPU = 943.882 ms, elapsed = 1.41982 s.
Time accumulated: CPU = 1.00455 s, elapsed = 1.41983 s.
Peak resident memory used = 72.4 Mbytes.


Warning from spectre during circuit read-in.
    WARNING (SFE-2654): VerilogA module `respoly_va' override primitive/(verilogA module) `respoly_va'.
    WARNING (SFE-2654): VerilogA module `respoly_va' override primitive/(verilogA module) `respoly_va'.

Existing shared object for module res_va is up to date.
Installed compiled interface for res_va.

Warning from spectre in `Post_L8_256t8_Pex':`I18.I7.I0', in `Post_L8_256t8_ex':`I18.I7', in `RowDecoder_256_1xP':`I18', during hierarchy flattening.
    WARNING (SFE-103): "/home/edauser0/ayigit/RowDecoder_Project/CDS_VISIO/project_1x/Post_L8_256t8_Pex/spectreText/spectre.scs" 2453: Subcircuit parameter `res', defined for subcircuit `r_1x_ll', has been ignored because it is invalid. Check the parameters that are defined for the instantiated subcircuit and rerun the simulation.
    WARNING (SFE-103): "/home/edauser0/ayigit/RowDecoder_Project/CDS_VISIO/project_1x/Post_L8_256t8_Pex/spectreText/spectre.scs" 2458: Subcircuit parameter `res', defined for subcircuit `r_1x_ll', has been ignored because it is invalid. Check the parameters that are defined for the instantiated subcircuit and rerun the simulation.
    WARNING (SFE-103): "/home/edauser0/ayigit/RowDecoder_Project/CDS_VISIO/project_1x/Post_L8_256t8_Pex/spectreText/spectre.scs" 2463: Subcircuit parameter `res', defined for subcircuit `r_1x_ll', has been ignored because it is invalid. Check the parameters that are defined for the instantiated subcircuit and rerun the simulation.
    WARNING (SFE-103): "/home/edauser0/ayigit/RowDecoder_Project/CDS_VISIO/project_1x/Post_L8_256t8_Pex/spectreText/spectre.scs" 2468: Subcircuit parameter `res', defined for subcircuit `r_1x_ll', has been ignored because it is invalid. Check the parameters that are defined for the instantiated subcircuit and rerun the simulation.
    WARNING (SFE-103): "/home/edauser0/ayigit/RowDecoder_Project/CDS_VISIO/project_1x/Post_L8_256t8_Pex/spectreText/spectre.scs" 2473: Subcircuit parameter `res', defined for subcircuit `r_1x_ll', has been ignored because it is invalid. Check the parameters that are defined for the instantiated subcircuit and rerun the simulation.
        Further occurrences of this warning will be suppressed.
Warning from spectre in `INV':`I18.I40', in `RowDecoder_256_1xP':`I18', during hierarchy flattening.
    WARNING (SFE-102): "input.scs" 59: Parameter `mis_flag', specified for model `n_12_llrvt' of primitive `bsim4', has been ignored because it is an invalid model parameter. Specify a valid model parameter and rerun the simulation. Type `spectre -h bsim4' to get more information on valid model parameters.
    WARNING (SFE-102): "input.scs" 59: Parameter `mf', specified for model `n_12_llrvt' of primitive `bsim4', has been ignored because it is an invalid model parameter. Specify a valid model parameter and rerun the simulation. Type `spectre -h bsim4' to get more information on valid model parameters.
    WARNING (SFE-102): "input.scs" 70: Parameter `mis_flag', specified for model `p_12_llrvt' of primitive `bsim4', has been ignored because it is an invalid model parameter. Specify a valid model parameter and rerun the simulation. Type `spectre -h bsim4' to get more information on valid model parameters.
    WARNING (SFE-102): "input.scs" 70: Parameter `mf', specified for model `p_12_llrvt' of primitive `bsim4', has been ignored because it is an invalid model parameter. Specify a valid model parameter and rerun the simulation. Type `spectre -h bsim4' to get more information on valid model parameters.
Warning from spectre in `INV':`I18.I1', in `RowDecoder_256_1xP':`I18', during hierarchy flattening.
    WARNING (SFE-102): "input.scs" 59: Parameter `mis_flag', specified for model `n_12_llrvt' of primitive `bsim4', has been ignored because it is an invalid model parameter. Specify a valid model parameter and rerun the simulation. Type `spectre -h bsim4' to get more information on valid model parameters.
        Further occurrences of this warning will be suppressed.

Time for Elaboration: CPU = 2.08968 s, elapsed = 2.09106 s.
Time accumulated: CPU = 3.0944 s, elapsed = 3.51105 s.
Peak resident memory used = 137 Mbytes.


Warning from spectre during hierarchy flattening.
    WARNING (SPECTRE-17101): The value 'psf' specified using the 'checklimitdest' option will no longer be supported in future releases.


Time for EDB Visiting: CPU = 724.136 ms, elapsed = 724.122 ms.
Time accumulated: CPU = 3.81875 s, elapsed = 4.2354 s.
Peak resident memory used = 183 Mbytes.


Global user options:
         psfversion = 1.1.0
            vabstol = 1e-06
            iabstol = 1e-12
               temp = 27
               gmin = 1e-12
             rforce = 1
           maxnotes = 5
           maxwarns = 5
             digits = 5
               cols = 80
             pivrel = 0.001
           sensfile = ../psf/sens.output
     checklimitdest = psf
               save = allpub
             reltol = 0.001
               tnom = 27
             scalem = 1
              scale = 1

Scoped user options:

Circuit inventory:
              nodes 15318
              bsim4 24176 
          capacitor 13539 
             iprobe 16    
             res_va 2048  
           resistor 9348  
            vsource 10    

Analysis and control statement inventory:
               info 7     
               tran 1     

Output statements:
             .probe 0     
           .measure 0     
               save 0     


Notice from spectre during initial setup.
    256 resistors are shorted because their absolute value is less than or equal to 'rabsshort'.
    Fast APS Enabled.
    18646 warnings suppressed.
    Multithreading Enabled: 8 threads in the system with 48 available processors.

Time for parsing: CPU = 2.60757 s, elapsed = 2.60875 s.
Time accumulated: CPU = 6.42645 s, elapsed = 6.84428 s.
Peak resident memory used = 209 Mbytes.

~~~~~~~~~~~~~~~~~~~~~~
Pre-Simulation Summary
~~~~~~~~~~~~~~~~~~~~~~
~~~~~~~~~~~~~~~~~~~~~~

************************************************
Transient Analysis `tran': time = (0 s -> 10 ns)
************************************************
DC simulation time: CPU = 1.12097 s, elapsed = 397.965 ms.

Opening the PSFXL file ../psf/tran.tran.tran ...
Important parameter values:
    start = 0 s
    outputstart = 0 s
    stop = 10 ns
    step = 10 ps
    maxstep = 200 ps
    ic = all
    useprevic = no
    skipdc = no
    reltol = 10e-03
    abstol(V) = 1 uV
    abstol(I) = 1 pA
    temp = 27 C
    tnom = 27 C
    tempeffects = all
    errpreset = liberal
    method = trapgear2
    lteratio = 3.5
    relref = sigglobal
    cmin = 0 F
    gmin = 1 pS
    rabsshort = 1 mOhm
    compression = wildcardonly


Output and IC/nodeset summary:
                 save   26      (current)
                 save   15318   (voltage)

    tran: time = 280.9 ps    (2.81 %), step = 101.1 ps     (1.01 %)
    tran: time = 825.6 ps    (8.26 %), step = 144.7 ps     (1.45 %)
    tran: time = 1.264 ns    (12.6 %), step = 19.17 ps     (192 m%)
    tran: time = 1.753 ns    (17.5 %), step = 14.16 ps     (142 m%)
    tran: time = 2.286 ns    (22.9 %), step = 100.8 ps     (1.01 %)
    tran: time = 2.766 ns    (27.7 %), step = 35.07 ps     (351 m%)
    tran: time = 3.307 ns    (33.1 %), step = 98.67 ps     (987 m%)
    tran: time = 3.805 ns    (38.1 %), step = 71.89 ps     (719 m%)
    tran: time = 4.283 ns    (42.8 %), step = 93.34 ps     (933 m%)
    tran: time = 4.794 ns    (47.9 %), step = 82.6 ps      (826 m%)
    tran: time = 5.264 ns    (52.6 %), step = 52.62 ps     (526 m%)
    tran: time = 5.864 ns    (58.6 %), step = 122.7 ps     (1.23 %)
    tran: time = 6.279 ns    (62.8 %), step = 98.59 ps     (986 m%)
    tran: time = 6.849 ns    (68.5 %), step = 200 ps          (2 %)
    tran: time = 7.281 ns    (72.8 %), step = 41.07 ps     (411 m%)
    tran: time = 7.757 ns    (77.6 %), step = 28.33 ps     (283 m%)
    tran: time = 8.265 ns    (82.6 %), step = 90.57 ps     (906 m%)
    tran: time = 8.779 ns    (87.8 %), step = 100 ps          (1 %)
    tran: time = 9.294 ns    (92.9 %), step = 85.58 ps     (856 m%)
    tran: time = 9.811 ns    (98.1 %), step = 62.71 ps     (627 m%)
Number of accepted tran steps =             401

Maximum value achieved for any signal of each quantity: 
V: V(I18.I35.net5) = 1.485 V
I: I(V9:p) = 332.4 mA
If your circuit contains signals of the same quantity that are vastly different in size (such as high voltage circuitry combined with low voltage control circuitry), you should consider specifying global option `bin_relref=yes'.

~~~~~~~~~~~~~~~~~~~~~~~~~~~~~~~~~
Post-Transient Simulation Summary
~~~~~~~~~~~~~~~~~~~~~~~~~~~~~~~~~
~~~~~~~~~~~~~~~~~~~~~~~~~~~~~~~~~


During simulation, the CPU load for active processors is :
        Spectre  0 (7.1 %)       1 (91.6 %)      2 (3.6 %)       3 (10.3 %)
                 4 (2.6 %)       5 (8.2 %)       6 (4.0 %)       7 (8.4 %)
                 8 (1.7 %)       9 (10.3 %)     10 (2.5 %)      11 (9.0 %)
                12 (1.4 %)      13 (11.1 %)     14 (1.5 %)      15 (12.2 %)
                16 (1.3 %)      17 (9.5 %)      18 (1.8 %)      19 (9.6 %)
                20 (4.6 %)      21 (14.0 %)     22 (2.1 %)      23 (4.2 %)
                26 (3.8 %)      27 (10.6 %)     28 (3.4 %)      29 (8.3 %)
                30 (1.5 %)      31 (8.6 %)      32 (1.4 %)      33 (9.8 %)
                35 (7.8 %)      37 (8.8 %)      39 (10.3 %)     42 (1.1 %)
                43 (3.2 %)      
        Other   
Initial condition solution time: CPU = 1.12162 s, elapsed = 398.349 ms.
Intrinsic tran analysis time:    CPU = 67.2264 s, elapsed = 19.6626 s.
Total time required for tran analysis `tran': CPU = 68.4387 s (1m  8.4s), elapsed = 20.1275 s.
Time accumulated: CPU = 75.2169 s (1m  15.2s), elapsed = 27.4449 s.
Peak resident memory used = 369 Mbytes.

finalTimeOP: writing operating point information to rawfile.

Opening the PSF file ../psf/finalTimeOP.info ...
modelParameter: writing model parameter values to rawfile.

Opening the PSF file ../psf/modelParameter.info ...
element: writing instance parameter values to rawfile.

Opening the PSF file ../psf/element.info ...
outputParameter: writing output parameter values to rawfile.

Opening the PSF file ../psf/outputParameter.info ...
designParamVals: writing netlist parameters to rawfile.

Opening the PSFASCII file ../psf/designParamVals.info ...
primitives: writing primitives to rawfile.

Opening the PSFASCII file ../psf/primitives.info.primitives ...
subckts: writing subcircuits to rawfile.

Opening the PSFASCII file ../psf/subckts.info.subckts ...

Aggregate audit (4:27:09 PM, Fri Dec 17, 2021):
Time used: CPU = 77 s (1m  17.0s), elapsed = 29.6 s, util. = 260%.
Time spent in licensing: elapsed = 27.6 ms.
Peak memory used = 370 Mbytes.
Simulation started at: 4:26:39 PM, Fri Dec 17, 2021, ended at: 4:27:09 PM, Fri Dec 17, 2021, with elapsed time (wall clock): 29.6 s.
spectre completes with 0 errors, 16 warnings, and 5 notices.


********* LOG ENDS **************
**                             **
