
Spectre (R) Circuit Simulator
Version 18.1.0.556.isr13 64bit -- 10 Dec 2019
Copyright (C) 1989-2019 Cadence Design Systems, Inc. All rights reserved worldwide. Cadence and Spectre are registered trademarks of Cadence Design Systems, Inc. All others are the property of their respective holders.

Includes RSA BSAFE(R) Cryptographic or Security Protocol Software from RSA Security, Inc.

User: edauser85   Host: selsrv2.epfl.ch   HostID: B28006F2   PID: 3858
Memory  available: 75.7115 GB  physical: 134.9216 GB
Linux   : Red Hat Enterprise Linux Server release 7.9 (Maipo)
CPU Type: Intel(R) Xeon(R) CPU E5-2650 v4 @ 2.20GHz
        Socket: Processors [Frequency] (Hyperthreaded Processor)
        0:       0 [2612.0] ( 24 ),  2 [2504.9] ( 26 ),  4 [2627.9] ( 28 )
                 6 [2603.1] ( 30 ),  8 [2602.8] ( 32 ), 10 [2573.7] ( 34 )
                12 [2667.4] ( 36 ), 14 [2675.1] ( 38 ), 16 [2512.5] ( 40 )
                18 [2730.0] ( 42 ), 20 [2656.9] ( 44 ), 22 [2583.6] ( 46 )
        1:       1 [2506.7] ( 25 ),  3 [2615.5] ( 27 ),  5 [2561.5] ( 29 )
                 7 [2381.0] ( 31 ),  9 [2799.4] ( 33 ), 11 [2374.8] ( 35 )
                13 [2530.5] ( 37 ), 15 [2515.4] ( 39 ), 17 [2506.2] ( 41 )
                19 [2673.1] ( 43 ), 21 [2564.3] ( 45 ), 23 [2500.8] ( 47 )
        
System load averages (1min, 5min, 15min) : 5.2 %, 3.1 %, 2.0 %
Hyperthreading is enabled


Simulating `input.scs' on selsrv2.epfl.ch at 9:29:34 PM, Wed Dec 21, 2022 (process id: 3858).
Current working directory: /home/edauser85/2022_project/CDS_VISIO/Sim/project_common/INV_tb/adexl/results/data/Interactive.31/1/project_common:INV_tb:1/netlist
Command line:
    /softs/cadence/spectre/18.10/tools/bin/spectre -64 input.scs  \
        +escchars +log ../psf/spectre.out -format psfxl -raw ../psf  \
        +lqtimeout 900 -maxw 5 -maxn 5 -ahdllibdir  \
        /home/edauser85/2022_project/CDS_VISIO/Sim/project_common/INV_tb/adexl/results/data/Interactive.31/sharedData/Job0/ahdl/input.ahdlSimDB  \
        +logstatus

Loading /softs/cadence/spectre/18.10/tools.lnx86/cmi/lib/64bit/5.0/libinfineon_sh.so ...
Loading /softs/cadence/spectre/18.10/tools.lnx86/cmi/lib/64bit/5.0/libphilips_o_sh.so ...
Loading /softs/cadence/spectre/18.10/tools.lnx86/cmi/lib/64bit/5.0/libphilips_sh.so ...
Loading /softs/cadence/spectre/18.10/tools.lnx86/cmi/lib/64bit/5.0/libsparam_sh.so ...
Loading /softs/cadence/spectre/18.10/tools.lnx86/cmi/lib/64bit/5.0/libstmodels_sh.so ...
Reading file:  /home/edauser85/2022_project/CDS_VISIO/Sim/project_common/INV_tb/adexl/results/data/Interactive.31/1/project_common:INV_tb:1/netlist/input.scs
Reading file:  /softs/cadence/spectre/18.10/tools.lnx86/spectre/etc/configs/spectre.cfg
Reading file:  /dkits/umc/65nm/lms65ll/pdk_b09pb/Models/Spectre/l65ll_v151.lib.scs

Warning from spectre in `momcaps_symesh_mmkf', during circuit read-in.
    WARNING (SFE-2296): "/dkits/umc/65nm/lms65ll/pdk_b09pb/umc65ll/../Models/Spectre/l65ll_v151.lib.scs" 13269: The inline subckt definition `momcaps_symesh_mmkf' does not contain any inline components. The `inline' qualifier will therefore be ignored.
Warning from spectre in `momcaps_asmesh_mmkf', during circuit read-in.
    WARNING (SFE-2296): "/dkits/umc/65nm/lms65ll/pdk_b09pb/umc65ll/../Models/Spectre/l65ll_v151.lib.scs" 13355: The inline subckt definition `momcaps_asmesh_mmkf' does not contain any inline components. The `inline' qualifier will therefore be ignored.

Reading file:  /dkits/umc/65nm/lms65ll/pdk_b09pb/Models/Spectre/l65ll_res_v131_s.va
Reading link:  /softs/cadence/spectre/18.10/tools.lnx86/spectre/etc/ahdl/constants.h
Reading file:  /softs/cadence/spectre/18.10/tools.lnx86/spectre/etc/ahdl/constants.vams
Reading link:  /softs/cadence/spectre/18.10/tools.lnx86/spectre/etc/ahdl/discipline.h
Reading file:  /softs/cadence/spectre/18.10/tools.lnx86/spectre/etc/ahdl/disciplines.vams
Reading file:  /dkits/umc/65nm/lms65ll/pdk_b09pb/Models/Spectre/L65LL_RVT12_V101_RF.lib.scs
Reading file:  /dkits/umc/65nm/lms65ll/pdk_b09pb/Models/Spectre/L65LL_RVT12_V101_RF.mdl.scs
Reading file:  /dkits/umc/65nm/lms65ll/pdk_b09pb/Models/Spectre/Rde65.va
Reading file:  /dkits/umc/65nm/lms65ll/pdk_b09pb/Models/Spectre/L65LL_HVT12_V101_RF.lib.scs
Reading file:  /dkits/umc/65nm/lms65ll/pdk_b09pb/Models/Spectre/L65LL_HVT12_V101_RF.mdl.scs
Reading file:  /dkits/umc/65nm/lms65ll/pdk_b09pb/Models/Spectre/Rde_llhvtrfs.va
Reading file:  /dkits/umc/65nm/lms65ll/pdk_b09pb/Models/Spectre/L65LL_LVT12_V101_RF.lib.scs
Reading file:  /dkits/umc/65nm/lms65ll/pdk_b09pb/Models/Spectre/L65LL_LVT12_V101_RF.mdl.scs
Reading file:  /dkits/umc/65nm/lms65ll/pdk_b09pb/Models/Spectre/l65rflvt101s.va
Reading file:  /dkits/umc/65nm/lms65ll/pdk_b09pb/Models/Spectre/L65LL_IO18_V101_RF.lib.scs
Reading file:  /dkits/umc/65nm/lms65ll/pdk_b09pb/Models/Spectre/L65LL_IO18_V101_RF.mdl.scs
Reading file:  /dkits/umc/65nm/lms65ll/pdk_b09pb/Models/Spectre/L65LL_IO25_V101_RF.lib.scs
Reading file:  /dkits/umc/65nm/lms65ll/pdk_b09pb/Models/Spectre/L65LL_IO25_V101_RF.mdl.scs
Reading file:  /dkits/umc/65nm/lms65ll/pdk_b09pb/Models/Spectre/l65ll_25rf_101_s.va
Reading file:  /dkits/umc/65nm/lms65ll/pdk_b09pb/Models/Spectre/L65LL_IO33_V111_RF.lib.scs
Reading file:  /dkits/umc/65nm/lms65ll/pdk_b09pb/Models/Spectre/L65LL_IO33_V111_RF.mdl.scs
Reading file:  /dkits/umc/65nm/lms65ll/pdk_b09pb/Models/Spectre/Rde65LL_IO33_111.va.scs

Warning from spectre in `p_33_llrf', during circuit read-in.
    WARNING (SFE-2296): "/dkits/umc/65nm/lms65ll/pdk_b09pb/umc65ll/../Models/Spectre/L65LL_IO33_V111_RF.mdl.scs" 490: The inline subckt definition `p_33_llrf' does not contain any inline components. The `inline' qualifier will therefore be ignored.

Reading file:  /dkits/umc/65nm/lms65ll/pdk_b09pb/Models/Spectre/L65LL_VARMIS12_V111_RF.lib.scs
Reading file:  /dkits/umc/65nm/lms65ll/pdk_b09pb/Models/Spectre/L65LL_VARMIS12_V111_RF.mdl.scs
Reading file:  /dkits/umc/65nm/lms65ll/pdk_b09pb/Models/Spectre/L65LL_VARMIS18_V111_RF.lib.scs
Reading file:  /dkits/umc/65nm/lms65ll/pdk_b09pb/Models/Spectre/L65LL_VARMIS18_V111_RF.mdl.scs
Reading file:  /dkits/umc/65nm/lms65ll/pdk_b09pb/Models/Spectre/L65LL_VARMIS25_V121_RF.lib.scs
Reading file:  /dkits/umc/65nm/lms65ll/pdk_b09pb/Models/Spectre/L65LL_VARMIS25_V121_RF.mdl.scs
Reading file:  /dkits/umc/65nm/lms65ll/pdk_b09pb/Models/Spectre/L65LL_VARMIS33_V111_RF.lib.scs
Reading file:  /dkits/umc/65nm/lms65ll/pdk_b09pb/Models/Spectre/L65LL_VARMIS33_V111_RF.mdl.scs
Reading file:  /dkits/umc/65nm/lms65ll/pdk_b09pb/Models/Spectre/L65LL_VARDIOP_V101_RF.lib.scs
Reading file:  /dkits/umc/65nm/lms65ll/pdk_b09pb/Models/Spectre/L65LL_VARDIOP_V101_RF.mdl.scs
Reading file:  /dkits/umc/65nm/lms65ll/pdk_b09pb/Models/Spectre/momcaps_array_vp3_rfvcl_V101.lib.scs
Reading file:  /dkits/umc/65nm/lms65ll/pdk_b09pb/Models/Spectre/momcaps_array_vp3_rfvcl_V101.typ.scs
Reading file:  /dkits/umc/65nm/lms65ll/pdk_b09pb/Models/Spectre/momcaps_array_vp4_rfvcl_V101.lib.scs
Reading file:  /dkits/umc/65nm/lms65ll/pdk_b09pb/Models/Spectre/momcaps_array_vp4_rfvcl_V101.typ.scs
Reading file:  /dkits/umc/65nm/lms65ll/pdk_b09pb/Models/Spectre/momcaps_array_vp5_rfvcl_V101.lib.scs
Reading file:  /dkits/umc/65nm/lms65ll/pdk_b09pb/Models/Spectre/momcaps_array_vp5_rfvcl_V101.typ.scs
Reading file:  /dkits/umc/65nm/lms65ll/pdk_b09pb/Models/Spectre/L65_MIMCAPS_20F_KF_V101_RF.lib.scs
Reading file:  /dkits/umc/65nm/lms65ll/pdk_b09pb/Models/Spectre/L65_MIMCAPS_20F_KF_V101_RF.mdl.scs
Reading file:  /dkits/umc/65nm/lms65ll/pdk_b09pb/Models/Spectre/L65LL_RNPPO_V101_RF.lib.scs
Reading file:  /dkits/umc/65nm/lms65ll/pdk_b09pb/Models/Spectre/L65LL_RNPPO_V101_RF.mdl.scs
Reading file:  /dkits/umc/65nm/lms65ll/pdk_b09pb/Models/Spectre/res_poly.va
Reading file:  /dkits/umc/65nm/lms65ll/pdk_b09pb/Models/Spectre/L65LL_RNNPO_V101_RF.lib.scs
Reading file:  /dkits/umc/65nm/lms65ll/pdk_b09pb/Models/Spectre/L65LL_RNNPO_V101_RF.mdl.scs
Reading file:  /dkits/umc/65nm/lms65ll/pdk_b09pb/Models/Spectre/L65LL_RNHR_V101_RF.lib.scs
Reading file:  /dkits/umc/65nm/lms65ll/pdk_b09pb/Models/Spectre/L65LL_RNHR_V101_RF.mdl.scs
Reading file:  /dkits/umc/65nm/lms65ll/pdk_b09pb/Models/Spectre/L65_pad_rf_V101.lib.scs
Reading file:  /dkits/umc/65nm/lms65ll/pdk_b09pb/Models/Spectre/L65_pad_rf_V101.mdl.scs
Time for NDB Parsing: CPU = 740.739 ms, elapsed = 1.19488 s.
Time accumulated: CPU = 785.62 ms, elapsed = 1.19488 s.
Peak resident memory used = 64.4 Mbytes.


Warning from spectre during circuit read-in.
    WARNING (SFE-2654): VerilogA module `respoly_va' override primitive/(verilogA module) `respoly_va'.
    WARNING (SFE-2654): VerilogA module `respoly_va' override primitive/(verilogA module) `respoly_va'.
Warning from spectre during hierarchy flattening.
    WARNING (SFE-102): "input.scs" 61: Parameter `mis_flag', specified for model `p_12_llrvt' of primitive `bsim4', has been ignored because it is an invalid model parameter. Specify a valid model parameter and rerun the simulation. Type `spectre -h bsim4' to get more information on valid model parameters.
    WARNING (SFE-102): "input.scs" 61: Parameter `mf', specified for model `p_12_llrvt' of primitive `bsim4', has been ignored because it is an invalid model parameter. Specify a valid model parameter and rerun the simulation. Type `spectre -h bsim4' to get more information on valid model parameters.
    WARNING (SFE-102): "input.scs" 64: Parameter `mis_flag', specified for model `n_12_llrvt' of primitive `bsim4', has been ignored because it is an invalid model parameter. Specify a valid model parameter and rerun the simulation. Type `spectre -h bsim4' to get more information on valid model parameters.
    WARNING (SFE-102): "input.scs" 64: Parameter `mf', specified for model `n_12_llrvt' of primitive `bsim4', has been ignored because it is an invalid model parameter. Specify a valid model parameter and rerun the simulation. Type `spectre -h bsim4' to get more information on valid model parameters.

Time for Elaboration: CPU = 25.735 ms, elapsed = 37.7281 ms.
Time accumulated: CPU = 811.479 ms, elapsed = 1.23273 s.
Peak resident memory used = 72.1 Mbytes.


Warning from spectre during hierarchy flattening.
    WARNING (SPECTRE-17101): The value 'psf' specified using the 'checklimitdest' option will no longer be supported in future releases.


Time for EDB Visiting: CPU = 1.072 ms, elapsed = 1.07193 ms.
Time accumulated: CPU = 812.716 ms, elapsed = 1.23397 s.
Peak resident memory used = 72.9 Mbytes.


Global user options:
         psfversion = 1.1.0
            vabstol = 1e-06
            iabstol = 1e-12
               temp = 27
               gmin = 1e-12
             rforce = 1
           maxnotes = 5
           maxwarns = 5
             digits = 5
               cols = 80
             pivrel = 0.001
           sensfile = ../psf/sens.output
     checklimitdest = psf
               save = allpub
             reltol = 0.001
               tnom = 27
             scalem = 1
              scale = 1

Scoped user options:

Circuit inventory:
              nodes 3
              bsim4 2     
          capacitor 1     
            vsource 2     

Analysis and control statement inventory:
               info 7     
               tran 1     

Output statements:
             .probe 0     
           .measure 0     
               save 0     

Time for parsing: CPU = 3.311 ms, elapsed = 5.60522 ms.
Time accumulated: CPU = 816.132 ms, elapsed = 1.23968 s.
Peak resident memory used = 74.6 Mbytes.

~~~~~~~~~~~~~~~~~~~~~~
Pre-Simulation Summary
~~~~~~~~~~~~~~~~~~~~~~
~~~~~~~~~~~~~~~~~~~~~~

*************************************************
Transient Analysis `tran': time = (0 s -> 100 ns)
*************************************************
DC simulation time: CPU = 534 us, elapsed = 534.058 us.

Opening the PSFXL file ../psf/tran.tran.tran ...
Important parameter values:
    start = 0 s
    outputstart = 0 s
    stop = 100 ns
    step = 100 ps
    maxstep = 2 ns
    ic = all
    useprevic = no
    skipdc = no
    reltol = 1e-03
    abstol(V) = 1 uV
    abstol(I) = 1 pA
    temp = 27 C
    tnom = 27 C
    tempeffects = all
    errpreset = moderate
    method = traponly
    lteratio = 3.5
    relref = sigglobal
    cmin = 0 F
    gmin = 1 pS


Output and IC/nodeset summary:
                 save   2       (current)
                 save   3       (voltage)


Notice from spectre at time = 381.456 ps during transient analysis `tran'.
    Found trapezoidal ringing on node NM0:int_d.
Notice from spectre at time = 653.934 ps during transient analysis `tran'.
    Found trapezoidal ringing on node NM0:int_d.
Notice from spectre at time = 1.19889 ns during transient analysis `tran'.
    Found trapezoidal ringing on node NM0:int_d.
Notice from spectre at time = 2.2888 ns during transient analysis `tran'.
    Found trapezoidal ringing on node NM0:int_d.
Notice from spectre at time = 3.6444 ns during transient analysis `tran'.
    Found trapezoidal ringing on node NM0:int_d.
        Further occurrences of this notice will be suppressed.

    tran: time = 3.644 ns    (3.64 %), step = 1.356 ns     (1.36 %)
    tran: time = 7.852 ns    (7.85 %), step = 1.366 ns     (1.37 %)
    tran: time = 12.58 ns    (12.6 %), step = 1.236 ns     (1.24 %)
    tran: time = 17.85 ns    (17.9 %), step = 1.366 ns     (1.37 %)
    tran: time = 22.58 ns    (22.6 %), step = 1.236 ns     (1.24 %)
    tran: time = 27.85 ns    (27.9 %), step = 1.366 ns     (1.37 %)
    tran: time = 32.58 ns    (32.6 %), step = 1.236 ns     (1.24 %)
    tran: time = 37.85 ns    (37.9 %), step = 1.366 ns     (1.37 %)
    tran: time = 42.58 ns    (42.6 %), step = 1.236 ns     (1.24 %)
    tran: time = 47.85 ns    (47.9 %), step = 1.366 ns     (1.37 %)
    tran: time = 52.58 ns    (52.6 %), step = 1.236 ns     (1.24 %)
    tran: time = 57.85 ns    (57.9 %), step = 1.366 ns     (1.37 %)
    tran: time = 62.58 ns    (62.6 %), step = 1.236 ns     (1.24 %)
    tran: time = 67.85 ns    (67.9 %), step = 1.366 ns     (1.37 %)
    tran: time = 72.58 ns    (72.6 %), step = 1.236 ns     (1.24 %)
    tran: time = 77.85 ns    (77.9 %), step = 1.366 ns     (1.37 %)
    tran: time = 82.58 ns    (82.6 %), step = 1.236 ns     (1.24 %)
    tran: time = 87.85 ns    (87.9 %), step = 1.366 ns     (1.37 %)
    tran: time = 92.58 ns    (92.6 %), step = 1.236 ns     (1.24 %)
    tran: time = 97.85 ns    (97.9 %), step = 1.366 ns     (1.37 %)
Number of accepted tran steps =             653

Notice from spectre during transient analysis `tran'.
    Trapezoidal ringing is detected during tran analysis.
        Please use method=trap for better results and performance.


Maximum value achieved for any signal of each quantity: 
V: V(PM0:int_d) = 1.022 V
I: I(V1:p) = 9.036 uA
If your circuit contains signals of the same quantity that are vastly different in size (such as high voltage circuitry combined with low voltage control circuitry), you should consider specifying global option `bin_relref=yes'.

~~~~~~~~~~~~~~~~~~~~~~~~~~~~~~~~~
Post-Transient Simulation Summary
~~~~~~~~~~~~~~~~~~~~~~~~~~~~~~~~~
   -   To further speed up simulation, consider
          add ++aps on command line
~~~~~~~~~~~~~~~~~~~~~~~~~~~~~~~~~


During simulation, the CPU load for active processors is :
        Spectre  0 (6.2 %)       1 (22.8 %)      6 (2.4 %)       8 (1.6 %)
                 9 (3.2 %)      17 (1.6 %)      18 (100.0 %)    19 (8.0 %)
                20 (16.7 %)     22 (42.4 %)     23 (1.6 %)      44 (1.7 %)
        Other   
Initial condition solution time: CPU = 611 us, elapsed = 613.928 us.
Intrinsic tran analysis time:    CPU = 46.811 ms, elapsed = 70.4 ms.
Total time required for tran analysis `tran': CPU = 50.662 ms, elapsed = 87.049 ms.
Time accumulated: CPU = 873.202 ms, elapsed = 1.35491 s.
Peak resident memory used = 77.2 Mbytes.


Notice from spectre.
    105 notices suppressed.

finalTimeOP: writing operating point information to rawfile.

Opening the PSF file ../psf/finalTimeOP.info ...
modelParameter: writing model parameter values to rawfile.

Opening the PSF file ../psf/modelParameter.info ...
element: writing instance parameter values to rawfile.

Opening the PSF file ../psf/element.info ...
outputParameter: writing output parameter values to rawfile.

Opening the PSF file ../psf/outputParameter.info ...
designParamVals: writing netlist parameters to rawfile.

Opening the PSFASCII file ../psf/designParamVals.info ...
primitives: writing primitives to rawfile.

Opening the PSFASCII file ../psf/primitives.info.primitives ...
subckts: writing subcircuits to rawfile.

Opening the PSFASCII file ../psf/subckts.info.subckts ...

Aggregate audit (9:29:35 PM, Wed Dec 21, 2022):
Time used: CPU = 894 ms, elapsed = 1.41 s, util. = 63.4%.
Time spent in licensing: elapsed = 12.8 ms.
Peak memory used = 78.9 Mbytes.
Simulation started at: 9:29:34 PM, Wed Dec 21, 2022, ended at: 9:29:35 PM, Wed Dec 21, 2022, with elapsed time (wall clock): 1.41 s.
spectre completes with 0 errors, 10 warnings, and 8 notices.
