
Spectre (R) Circuit Simulator
Version 18.1.0.556.isr13 64bit -- 10 Dec 2019
Copyright (C) 1989-2019 Cadence Design Systems, Inc. All rights reserved worldwide. Cadence and Spectre are registered trademarks of Cadence Design Systems, Inc. All others are the property of their respective holders.

Includes RSA BSAFE(R) Cryptographic or Security Protocol Software from RSA Security, Inc.

User: edauser85   Host: selsrv2.epfl.ch   HostID: B28006F2   PID: 3858
Memory  available: 75.7115 GB  physical: 134.9216 GB
Linux   : Red Hat Enterprise Linux Server release 7.9 (Maipo)
CPU Type: Intel(R) Xeon(R) CPU E5-2650 v4 @ 2.20GHz
        Socket: Processors [Frequency] (Hyperthreaded Processor)
        0:       0 [2612.0] ( 24 ),  2 [2504.9] ( 26 ),  4 [2627.9] ( 28 )
                 6 [2603.1] ( 30 ),  8 [2602.8] ( 32 ), 10 [2573.7] ( 34 )
                12 [2667.4] ( 36 ), 14 [2675.1] ( 38 ), 16 [2512.5] ( 40 )
                18 [2730.0] ( 42 ), 20 [2656.9] ( 44 ), 22 [2583.6] ( 46 )
        1:       1 [2506.7] ( 25 ),  3 [2615.5] ( 27 ),  5 [2561.5] ( 29 )
                 7 [2381.0] ( 31 ),  9 [2799.4] ( 33 ), 11 [2374.8] ( 35 )
                13 [2530.5] ( 37 ), 15 [2515.4] ( 39 ), 17 [2506.2] ( 41 )
                19 [2673.1] ( 43 ), 21 [2564.3] ( 45 ), 23 [2500.8] ( 47 )
        
System load averages (1min, 5min, 15min) : 5.2 %, 3.1 %, 2.0 %
Hyperthreading is enabled


Simulating `input.scs' on selsrv2.epfl.ch at 9:29:34 PM, Wed Dec 21, 2022 (process id: 3858).
Current working directory: /home/edauser85/2022_project/CDS_VISIO/Sim/project_common/INV_tb/adexl/results/data/Interactive.31/1/project_common:INV_tb:1/netlist
Command line:
    /softs/cadence/spectre/18.10/tools/bin/spectre -64 input.scs  \
        +escchars +log ../psf/spectre.out -format psfxl -raw ../psf  \
        +lqtimeout 900 -maxw 5 -maxn 5 -ahdllibdir  \
        /home/edauser85/2022_project/CDS_VISIO/Sim/project_common/INV_tb/adexl/results/data/Interactive.31/sharedData/Job0/ahdl/input.ahdlSimDB  \
        +logstatus

Loading /softs/cadence/spectre/18.10/tools.lnx86/cmi/lib/64bit/5.0/libinfineon_sh.so ...
Loading /softs/cadence/spectre/18.10/tools.lnx86/cmi/lib/64bit/5.0/libphilips_o_sh.so ...
Loading /softs/cadence/spectre/18.10/tools.lnx86/cmi/lib/64bit/5.0/libphilips_sh.so ...
Loading /softs/cadence/spectre/18.10/tools.lnx86/cmi/lib/64bit/5.0/libsparam_sh.so ...
Loading /softs/cadence/spectre/18.10/tools.lnx86/cmi/lib/64bit/5.0/libstmodels_sh.so ...
Reading file:  /home/edauser85/2022_project/CDS_VISIO/Sim/project_common/INV_tb/adexl/results/data/Interactive.31/1/project_common:INV_tb:1/netlist/input.scs
Reading file:  /softs/cadence/spectre/18.10/tools.lnx86/spectre/etc/configs/spectre.cfg
Reading file:  /dkits/umc/65nm/lms65ll/pdk_b09pb/Models/Spectre/l65ll_v151.lib.scs

Warning from spectre in `momcaps_symesh_mmkf', during circuit read-in.
    WARNING (SFE-2296): "/dkits/umc/65nm/lms65ll/pdk_b09pb/umc65ll/../Models/Spectre/l65ll_v151.lib.scs" 13269: The inline subckt definition `momcaps_symesh_mmkf' does not contain any inline components. The `inline' qualifier will therefore be ignored.
Warning from spectre in `momcaps_asmesh_mmkf', during circuit read-in.
    WARNING (SFE-2296): "/dkits/umc/65nm/lms65ll/pdk_b09pb/umc65ll/../Models/Spectre/l65ll_v151.lib.scs" 13355: The inline subckt definition `momcaps_asmesh_mmkf' does not contain any inline components. The `inline' qualifier will therefore be ignored.

Reading file:  /dkits/umc/65nm/lms65ll/pdk_b09pb/Models/Spectre/l65ll_res_v131_s.va
Reading link:  /softs/cadence/spectre/18.10/tools.lnx86/spectre/etc/ahdl/constants.h
Reading file:  /softs/cadence/spectre/18.10/tools.lnx86/spectre/etc/ahdl/constants.vams
Reading link:  /softs/cadence/spectre/18.10/tools.lnx86/spectre/etc/ahdl/discipline.h
Reading file:  /softs/cadence/spectre/18.10/tools.lnx86/spectre/etc/ahdl/disciplines.vams
Reading file:  /dkits/umc/65nm/lms65ll/pdk_b09pb/Models/Spectre/L65LL_RVT12_V101_RF.lib.scs
Reading file:  /dkits/umc/65nm/lms65ll/pdk_b09pb/Models/Spectre/L65LL_RVT12_V101_RF.mdl.scs
Reading file:  /dkits/umc/65nm/lms65ll/pdk_b09pb/Models/Spectre/Rde65.va
Reading file:  /dkits/umc/65nm/lms65ll/pdk_b09pb/Models/Spectre/L65LL_HVT12_V101_RF.lib.scs
Reading file:  /dkits/umc/65nm/lms65ll/pdk_b09pb/Models/Spectre/L65LL_HVT12_V101_RF.mdl.scs
Reading file:  /dkits/umc/65nm/lms65ll/pdk_b09pb/Models/Spectre/Rde_llhvtrfs.va
Reading file:  /dkits/umc/65nm/lms65ll/pdk_b09pb/Models/Spectre/L65LL_LVT12_V101_RF.lib.scs
Reading file:  /dkits/umc/65nm/lms65ll/pdk_b09pb/Models/Spectre/L65LL_LVT12_V101_RF.mdl.scs
Reading file:  /dkits/umc/65nm/lms65ll/pdk_b09pb/Models/Spectre/l65rflvt101s.va
Reading file:  /dkits/umc/65nm/lms65ll/pdk_b09pb/Models/Spectre/L65LL_IO18_V101_RF.lib.scs
Reading file:  /dkits/umc/65nm/lms65ll/pdk_b09pb/Models/Spectre/L65LL_IO18_V101_RF.mdl.scs
Reading file:  /dkits/umc/65nm/lms65ll/pdk_b09pb/Models/Spectre/L65LL_IO25_V101_RF.lib.scs
Reading file:  /dkits/umc/65nm/lms65ll/pdk_b09pb/Models/Spectre/L65LL_IO25_V101_RF.mdl.scs
Reading file:  /dkits/umc/65nm/lms65ll/pdk_b09pb/Models/Spectre/l65ll_25rf_101_s.va
Reading file:  /dkits/umc/65nm/lms65ll/pdk_b09pb/Models/Spectre/L65LL_IO33_V111_RF.lib.scs
Reading file:  /dkits/umc/65nm/lms65ll/pdk_b09pb/Models/Spectre/L65LL_IO33_V111_RF.mdl.scs
Reading file:  /dkits/umc/65nm/lms65ll/pdk_b09pb/Models/Spectre/Rde65LL_IO33_111.va.scs

Warning from spectre in `p_33_llrf', during circuit read-in.
    WARNING (SFE-2296): "/dkits/umc/65nm/lms65ll/pdk_b09pb/umc65ll/../Models/Spectre/L65LL_IO33_V111_RF.mdl.scs" 490: The inline subckt definition `p_33_llrf' does not contain any inline components. The `inline' qualifier will therefore be ignored.

Reading file:  /dkits/umc/65nm/lms65ll/pdk_b09pb/Models/Spectre/L65LL_VARMIS12_V111_RF.lib.scs
Reading file:  /dkits/umc/65nm/lms65ll/pdk_b09pb/Models/Spectre/L65LL_VARMIS12_V111_RF.mdl.scs
Reading file:  /dkits/umc/65nm/lms65ll/pdk_b09pb/Models/Spectre/L65LL_VARMIS18_V111_RF.lib.scs
Reading file:  /dkits/umc/65nm/lms65ll/pdk_b09pb/Models/Spectre/L65LL_VARMIS18_V111_RF.mdl.scs
Reading file:  /dkits/umc/65nm/lms65ll/pdk_b09pb/Models/Spectre/L65LL_VARMIS25_V121_RF.lib.scs
Reading file:  /dkits/umc/65nm/lms65ll/pdk_b09pb/Models/Spectre/L65LL_VARMIS25_V121_RF.mdl.scs
Reading file:  /dkits/umc/65nm/lms65ll/pdk_b09pb/Models/Spectre/L65LL_VARMIS33_V111_RF.lib.scs
Reading file:  /dkits/umc/65nm/lms65ll/pdk_b09pb/Models/Spectre/L65LL_VARMIS33_V111_RF.mdl.scs
Reading file:  /dkits/umc/65nm/lms65ll/pdk_b09pb/Models/Spectre/L65LL_VARDIOP_V101_RF.lib.scs
Reading file:  /dkits/umc/65nm/lms65ll/pdk_b09pb/Models/Spectre/L65LL_VARDIOP_V101_RF.mdl.scs
Reading file:  /dkits/umc/65nm/lms65ll/pdk_b09pb/Models/Spectre/momcaps_array_vp3_rfvcl_V101.lib.scs
Reading file:  /dkits/umc/65nm/lms65ll/pdk_b09pb/Models/Spectre/momcaps_array_vp3_rfvcl_V101.typ.scs
Reading file:  /dkits/umc/65nm/lms65ll/pdk_b09pb/Models/Spectre/momcaps_array_vp4_rfvcl_V101.lib.scs
Reading file:  /dkits/umc/65nm/lms65ll/pdk_b09pb/Models/Spectre/momcaps_array_vp4_rfvcl_V101.typ.scs
Reading file:  /dkits/umc/65nm/lms65ll/pdk_b09pb/Models/Spectre/momcaps_array_vp5_rfvcl_V101.lib.scs
Reading file:  /dkits/umc/65nm/lms65ll/pdk_b09pb/Models/Spectre/momcaps_array_vp5_rfvcl_V101.typ.scs
Reading file:  /dkits/umc/65nm/lms65ll/pdk_b09pb/Models/Spectre/L65_MIMCAPS_20F_KF_V101_RF.lib.scs
Reading file:  /dkits/umc/65nm/lms65ll/pdk_b09pb/Models/Spectre/L65_MIMCAPS_20F_KF_V101_RF.mdl.scs
Reading file:  /dkits/umc/65nm/lms65ll/pdk_b09pb/Models/Spectre/L65LL_RNPPO_V101_RF.lib.scs
Reading file:  /dkits/umc/65nm/lms65ll/pdk_b09pb/Models/Spectre/L65LL_RNPPO_V101_RF.mdl.scs
Reading file:  /dkits/umc/65nm/lms65ll/pdk_b09pb/Models/Spectre/res_poly.va
Reading file:  /dkits/umc/65nm/lms65ll/pdk_b09pb/Models/Spectre/L65LL_RNNPO_V101_RF.lib.scs
Reading file:  /dkits/umc/65nm/lms65ll/pdk_b09pb/Models/Spectre/L65LL_RNNPO_V101_RF.mdl.scs
Reading file:  /dkits/umc/65nm/lms65ll/pdk_b09pb/Models/Spectre/L65LL_RNHR_V101_RF.lib.scs
Reading file:  /dkits/umc/65nm/lms65ll/pdk_b09pb/Models/Spectre/L65LL_RNHR_V101_RF.mdl.scs
Reading file:  /dkits/umc/65nm/lms65ll/pdk_b09pb/Models/Spectre/L65_pad_rf_V101.lib.scs
Reading file:  /dkits/umc/65nm/lms65ll/pdk_b09pb/Models/Spectre/L65_pad_rf_V101.mdl.scs
Time for NDB Parsing: CPU = 740.739 ms, elapsed = 1.19488 s.
Time accumulated: CPU = 785.62 ms, elapsed = 1.19488 s.
Peak resident memory used = 64.4 Mbytes.


Warning from spectre during circuit read-in.
    WARNING (SFE-2654): VerilogA module `respoly_va' override primitive/(verilogA module) `respoly_va'.
    WARNING (SFE-2654): VerilogA module `respoly_va' override primitive/(verilogA module) `respoly_va'.
Warning from spectre during hierarchy flattening.
    WARNING (SFE-102): "input.scs" 61: Parameter `mis_flag', specified for model `p_12_llrvt' of primitive `bsim4', has been ignored because it is an invalid model parameter. Specify a valid model parameter and rerun the simulation. Type `spectre -h bsim4' to get more information on valid model parameters.
    WARNING (SFE-102): "input.scs" 61: Parameter `mf', specified for model `p_12_llrvt' of primitive `bsim4', has been ignored because it is an invalid model parameter. Specify a valid model parameter and rerun the simulation. Type `spectre -h bsim4' to get more information on valid model parameters.
    WARNING (SFE-102): "input.scs" 64: Parameter `mis_flag', specified for model `n_12_llrvt' of primitive `bsim4', has been ignored because it is an invalid model parameter. Specify a valid model parameter and rerun the simulation. Type `spectre -h bsim4' to get more information on valid model parameters.
    WARNING (SFE-102): "input.scs" 64: Parameter `mf', specified for model `n_12_llrvt' of primitive `bsim4', has been ignored because it is an invalid model parameter. Specify a valid model parameter and rerun the simulation. Type `spectre -h bsim4' to get more information on valid model parameters.

Time for Elaboration: CPU = 25.735 ms, elapsed = 37.7281 ms.
Time accumulated: CPU = 811.479 ms, elapsed = 1.23273 s.
Peak resident memory used = 72.1 Mbytes.


Warning from spectre during hierarchy flattening.
    WARNING (SPECTRE-17101): The value 'psf' specified using the 'checklimitdest' option will no longer be supported in future releases.


Time for EDB Visiting: CPU = 1.072 ms, elapsed = 1.07193 ms.
Time accumulated: CPU = 812.716 ms, elapsed = 1.23397 s.
Peak resident memory used = 72.9 Mbytes.


Global user options:
         psfversion = 1.1.0
            vabstol = 1e-06
            iabstol = 1e-12
               temp = 27
               gmin = 1e-12
             rforce = 1
           maxnotes = 5
           maxwarns = 5
             digits = 5
               cols = 80
             pivrel = 0.001
           sensfile = ../psf/sens.output
     checklimitdest = psf
               save = allpub
             reltol = 0.001
               tnom = 27
             scalem = 1
              scale = 1

Scoped user options:

Circuit inventory:
              nodes 3
              bsim4 2     
          capacitor 1     
            vsource 2     

Analysis and control statement inventory:
               info 7     
               tran 1     

Output statements:
             .probe 0     
           .measure 0     
               save 0     

Time for parsing: CPU = 3.311 ms, elapsed = 5.60522 ms.
Time accumulated: CPU = 816.132 ms, elapsed = 1.23968 s.
Peak resident memory used = 74.6 Mbytes.

~~~~~~~~~~~~~~~~~~~~~~
Pre-Simulation Summary
~~~~~~~~~~~~~~~~~~~~~~
~~~~~~~~~~~~~~~~~~~~~~

*************************************************
Transient Analysis `tran': time = (0 s -> 100 ns)
*************************************************
DC simulation time: CPU = 534 us, elapsed = 534.058 us.

Opening the PSFXL file ../psf/tran.tran.tran ...
Important parameter values:
    start = 0 s
    outputstart = 0 s
    stop = 100 ns
    step = 100 ps
    maxstep = 2 ns
    ic = all
    useprevic = no
    skipdc = no
    reltol = 1e-03
    abstol(V) = 1 uV
    abstol(I) = 1 pA
    temp = 27 C
    tnom = 27 C
    tempeffects = all
    errpreset = moderate
    method = traponly
    lteratio = 3.5
    relref = sigglobal
    cmin = 0 F
    gmin = 1 pS


Output and IC/nodeset summary:
                 save   2       (current)
                 save   3       (voltage)


Notice from spectre at time = 381.456 ps during transient analysis `tran'.
    Found trapezoidal ringing on node NM0:int_d.
Notice from spectre at time = 653.934 ps during transient analysis `tran'.
    Found trapezoidal ringing on node NM0:int_d.
Notice from spectre at time = 1.19889 ns during transient analysis `tran'.
    Found trapezoidal ringing on node NM0:int_d.
Notice from spectre at time = 2.2888 ns during transient analysis `tran'.
    Found trapezoidal ringing on node NM0:int_d.
Notice from spectre at time = 3.6444 ns during transient analysis `tran'.
    Found trapezoidal ringing on node NM0:int_d.
        Further occurrences of this notice will be suppressed.

    tran: time = 3.644 ns    (3.64 %), step = 1.356 ns     (1.36 %)
    tran: time = 7.852 ns    (7.85 %), step = 1.366 ns     (1.37 %)
    tran: time = 12.58 ns    (12.6 %), step = 1.236 ns     (1.24 %)
    tran: time = 17.85 ns    (17.9 %), step = 1.366 ns     (1.37 %)
    tran: time = 22.58 ns    (22.6 %), step = 1.236 ns     (1.24 %)
    tran: time = 27.85 ns    (27.9 %), step = 1.366 ns     (1.37 %)
    tran: time = 32.58 ns    (32.6 %), step = 1.236 ns     (1.24 %)
    tran: time = 37.85 ns    (37.9 %), step = 1.366 ns     (1.37 %)
    tran: time = 42.58 ns    (42.6 %), step = 1.236 ns     (1.24 %)
    tran: time = 47.85 ns    (47.9 %), step = 1.366 ns     (1.37 %)
    tran: time = 52.58 ns    (52.6 %), step = 1.236 ns     (1.24 %)
    tran: time = 57.85 ns    (57.9 %), step = 1.366 ns     (1.37 %)
    tran: time = 62.58 ns    (62.6 %), step = 1.236 ns     (1.24 %)
    tran: time = 67.85 ns    (67.9 %), step = 1.366 ns     (1.37 %)
    tran: time = 72.58 ns    (72.6 %), step = 1.236 ns     (1.24 %)
    tran: time = 77.85 ns    (77.9 %), step = 1.366 ns     (1.37 %)
    tran: time = 82.58 ns    (82.6 %), step = 1.236 ns     (1.24 %)
    tran: time = 87.85 ns    (87.9 %), step = 1.366 ns     (1.37 %)
    tran: time = 92.58 ns    (92.6 %), step = 1.236 ns     (1.24 %)
    tran: time = 97.85 ns    (97.9 %), step = 1.366 ns     (1.37 %)
Number of accepted tran steps =             653

Notice from spectre during transient analysis `tran'.
    Trapezoidal ringing is detected during tran analysis.
        Please use method=trap for better results and performance.


Maximum value achieved for any signal of each quantity: 
V: V(PM0:int_d) = 1.022 V
I: I(V1:p) = 9.036 uA
If your circuit contains signals of the same quantity that are vastly different in size (such as high voltage circuitry combined with low voltage control circuitry), you should consider specifying global option `bin_relref=yes'.

~~~~~~~~~~~~~~~~~~~~~~~~~~~~~~~~~
Post-Transient Simulation Summary
~~~~~~~~~~~~~~~~~~~~~~~~~~~~~~~~~
   -   To further speed up simulation, consider
          add ++aps on command line
~~~~~~~~~~~~~~~~~~~~~~~~~~~~~~~~~


During simulation, the CPU load for active processors is :
        Spectre  0 (6.2 %)       1 (22.8 %)      6 (2.4 %)       8 (1.6 %)
                 9 (3.2 %)      17 (1.6 %)      18 (100.0 %)    19 (8.0 %)
                20 (16.7 %)     22 (42.4 %)     23 (1.6 %)      44 (1.7 %)
        Other   
Initial condition solution time: CPU = 611 us, elapsed = 613.928 us.
Intrinsic tran analysis time:    CPU = 46.811 ms, elapsed = 70.4 ms.
Total time required for tran analysis `tran': CPU = 50.662 ms, elapsed = 87.049 ms.
Time accumulated: CPU = 873.202 ms, elapsed = 1.35491 s.
Peak resident memory used = 77.2 Mbytes.


Notice from spectre.
    105 notices suppressed.

finalTimeOP: writing operating point information to rawfile.

Opening the PSF file ../psf/finalTimeOP.info ...
modelParameter: writing model parameter values to rawfile.

Opening the PSF file ../psf/modelParameter.info ...
element: writing instance parameter values to rawfile.

Opening the PSF file ../psf/element.info ...
outputParameter: writing output parameter values to rawfile.

Opening the PSF file ../psf/outputParameter.info ...
designParamVals: writing netlist parameters to rawfile.

Opening the PSFASCII file ../psf/designParamVals.info ...
primitives: writing primitives to rawfile.

Opening the PSFASCII file ../psf/primitives.info.primitives ...
subckts: writing subcircuits to rawfile.

Opening the PSFASCII file ../psf/subckts.info.subckts ...

Aggregate audit (9:29:35 PM, Wed Dec 21, 2022):
Time used: CPU = 894 ms, elapsed = 1.41 s, util. = 63.4%.
Time spent in licensing: elapsed = 12.8 ms.
Peak memory used = 78.9 Mbytes.
Simulation started at: 9:29:34 PM, Wed Dec 21, 2022, ended at: 9:29:35 PM, Wed Dec 21, 2022, with elapsed time (wall clock): 1.41 s.
spectre completes with 0 errors, 10 warnings, and 8 notices.


********* LOG ENDS **************
**                             **
**                             **
********* LOG STARTS ************



Spectre (R) Circuit Simulator
Version 18.1.0.556.isr13 64bit -- 10 Dec 2019
Copyright (C) 1989-2019 Cadence Design Systems, Inc. All rights reserved worldwide. Cadence and Spectre are registered trademarks of Cadence Design Systems, Inc. All others are the property of their respective holders.

Includes RSA BSAFE(R) Cryptographic or Security Protocol Software from RSA Security, Inc.

User: edauser85   Host: selsrv2.epfl.ch   HostID: B28006F2   PID: 4005
Memory  available: 75.6383 GB  physical: 134.9216 GB
Linux   : Red Hat Enterprise Linux Server release 7.9 (Maipo)
CPU Type: Intel(R) Xeon(R) CPU E5-2650 v4 @ 2.20GHz
        Socket: Processors [Frequency] (Hyperthreaded Processor)
        0:       0 [2677.2] ( 24 ),  2 [2730.4] ( 26 ),  4 [2710.8] ( 28 )
                 6 [2526.3] ( 30 ),  8 [2588.1] ( 32 ), 10 [2638.4] ( 34 )
                12 [2676.1] ( 36 ), 14 [2695.1] ( 38 ), 16 [2790.3] ( 40 )
                18 [2823.0] ( 42 ), 20 [2671.7] ( 44 ), 22 [2897.2] ( 46 )
        1:       1 [2061.3] ( 25 ),  3 [2471.5] ( 27 ),  5 [2865.2] ( 29 )
                 7 [2626.9] ( 31 ),  9 [2723.8] ( 33 ), 11 [2566.7] ( 35 )
                13 [2515.6] ( 37 ), 15 [2562.8] ( 39 ), 17 [2582.2] ( 41 )
                19 [2808.4] ( 43 ), 21 [2538.0] ( 45 ), 23 [2542.7] ( 47 )
        
System load averages (1min, 5min, 15min) : 5.2 %, 3.1 %, 2.0 %
Hyperthreading is enabled


Simulating `input.scs' on selsrv2.epfl.ch at 9:29:37 PM, Wed Dec 21, 2022 (process id: 4005).
Current working directory: /home/edauser85/2022_project/CDS_VISIO/Sim/project_common/INV_tb/adexl/results/data/Interactive.31/2/project_common:INV_tb:1/netlist
Command line:
    /softs/cadence/spectre/18.10/tools/bin/spectre -64 input.scs  \
        +escchars +log ../psf/spectre.out -format psfxl -raw ../psf  \
        +lqtimeout 900 -maxw 5 -maxn 5 -ahdllibdir  \
        /home/edauser85/2022_project/CDS_VISIO/Sim/project_common/INV_tb/adexl/results/data/Interactive.31/sharedData/Job0/ahdl/input.ahdlSimDB  \
        +logstatus

Loading /softs/cadence/spectre/18.10/tools.lnx86/cmi/lib/64bit/5.0/libinfineon_sh.so ...
Loading /softs/cadence/spectre/18.10/tools.lnx86/cmi/lib/64bit/5.0/libphilips_o_sh.so ...
Loading /softs/cadence/spectre/18.10/tools.lnx86/cmi/lib/64bit/5.0/libphilips_sh.so ...
Loading /softs/cadence/spectre/18.10/tools.lnx86/cmi/lib/64bit/5.0/libsparam_sh.so ...
Loading /softs/cadence/spectre/18.10/tools.lnx86/cmi/lib/64bit/5.0/libstmodels_sh.so ...
Reading file:  /home/edauser85/2022_project/CDS_VISIO/Sim/project_common/INV_tb/adexl/results/data/Interactive.31/2/project_common:INV_tb:1/netlist/input.scs
Reading file:  /softs/cadence/spectre/18.10/tools.lnx86/spectre/etc/configs/spectre.cfg
Reading file:  /dkits/umc/65nm/lms65ll/pdk_b09pb/Models/Spectre/l65ll_v151.lib.scs

Warning from spectre in `momcaps_symesh_mmkf', during circuit read-in.
    WARNING (SFE-2296): "/dkits/umc/65nm/lms65ll/pdk_b09pb/umc65ll/../Models/Spectre/l65ll_v151.lib.scs" 13269: The inline subckt definition `momcaps_symesh_mmkf' does not contain any inline components. The `inline' qualifier will therefore be ignored.
Warning from spectre in `momcaps_asmesh_mmkf', during circuit read-in.
    WARNING (SFE-2296): "/dkits/umc/65nm/lms65ll/pdk_b09pb/umc65ll/../Models/Spectre/l65ll_v151.lib.scs" 13355: The inline subckt definition `momcaps_asmesh_mmkf' does not contain any inline components. The `inline' qualifier will therefore be ignored.

Reading file:  /dkits/umc/65nm/lms65ll/pdk_b09pb/Models/Spectre/l65ll_res_v131_s.va
Reading link:  /softs/cadence/spectre/18.10/tools.lnx86/spectre/etc/ahdl/constants.h
Reading file:  /softs/cadence/spectre/18.10/tools.lnx86/spectre/etc/ahdl/constants.vams
Reading link:  /softs/cadence/spectre/18.10/tools.lnx86/spectre/etc/ahdl/discipline.h
Reading file:  /softs/cadence/spectre/18.10/tools.lnx86/spectre/etc/ahdl/disciplines.vams
Reading file:  /dkits/umc/65nm/lms65ll/pdk_b09pb/Models/Spectre/L65LL_RVT12_V101_RF.lib.scs
Reading file:  /dkits/umc/65nm/lms65ll/pdk_b09pb/Models/Spectre/L65LL_RVT12_V101_RF.mdl.scs
Reading file:  /dkits/umc/65nm/lms65ll/pdk_b09pb/Models/Spectre/Rde65.va
Reading file:  /dkits/umc/65nm/lms65ll/pdk_b09pb/Models/Spectre/L65LL_HVT12_V101_RF.lib.scs
Reading file:  /dkits/umc/65nm/lms65ll/pdk_b09pb/Models/Spectre/L65LL_HVT12_V101_RF.mdl.scs
Reading file:  /dkits/umc/65nm/lms65ll/pdk_b09pb/Models/Spectre/Rde_llhvtrfs.va
Reading file:  /dkits/umc/65nm/lms65ll/pdk_b09pb/Models/Spectre/L65LL_LVT12_V101_RF.lib.scs
Reading file:  /dkits/umc/65nm/lms65ll/pdk_b09pb/Models/Spectre/L65LL_LVT12_V101_RF.mdl.scs
Reading file:  /dkits/umc/65nm/lms65ll/pdk_b09pb/Models/Spectre/l65rflvt101s.va
Reading file:  /dkits/umc/65nm/lms65ll/pdk_b09pb/Models/Spectre/L65LL_IO18_V101_RF.lib.scs
Reading file:  /dkits/umc/65nm/lms65ll/pdk_b09pb/Models/Spectre/L65LL_IO18_V101_RF.mdl.scs
Reading file:  /dkits/umc/65nm/lms65ll/pdk_b09pb/Models/Spectre/L65LL_IO25_V101_RF.lib.scs
Reading file:  /dkits/umc/65nm/lms65ll/pdk_b09pb/Models/Spectre/L65LL_IO25_V101_RF.mdl.scs
Reading file:  /dkits/umc/65nm/lms65ll/pdk_b09pb/Models/Spectre/l65ll_25rf_101_s.va
Reading file:  /dkits/umc/65nm/lms65ll/pdk_b09pb/Models/Spectre/L65LL_IO33_V111_RF.lib.scs
Reading file:  /dkits/umc/65nm/lms65ll/pdk_b09pb/Models/Spectre/L65LL_IO33_V111_RF.mdl.scs
Reading file:  /dkits/umc/65nm/lms65ll/pdk_b09pb/Models/Spectre/Rde65LL_IO33_111.va.scs

Warning from spectre in `p_33_llrf', during circuit read-in.
    WARNING (SFE-2296): "/dkits/umc/65nm/lms65ll/pdk_b09pb/umc65ll/../Models/Spectre/L65LL_IO33_V111_RF.mdl.scs" 490: The inline subckt definition `p_33_llrf' does not contain any inline components. The `inline' qualifier will therefore be ignored.

Reading file:  /dkits/umc/65nm/lms65ll/pdk_b09pb/Models/Spectre/L65LL_VARMIS12_V111_RF.lib.scs
Reading file:  /dkits/umc/65nm/lms65ll/pdk_b09pb/Models/Spectre/L65LL_VARMIS12_V111_RF.mdl.scs
Reading file:  /dkits/umc/65nm/lms65ll/pdk_b09pb/Models/Spectre/L65LL_VARMIS18_V111_RF.lib.scs
Reading file:  /dkits/umc/65nm/lms65ll/pdk_b09pb/Models/Spectre/L65LL_VARMIS18_V111_RF.mdl.scs
Reading file:  /dkits/umc/65nm/lms65ll/pdk_b09pb/Models/Spectre/L65LL_VARMIS25_V121_RF.lib.scs
Reading file:  /dkits/umc/65nm/lms65ll/pdk_b09pb/Models/Spectre/L65LL_VARMIS25_V121_RF.mdl.scs
Reading file:  /dkits/umc/65nm/lms65ll/pdk_b09pb/Models/Spectre/L65LL_VARMIS33_V111_RF.lib.scs
Reading file:  /dkits/umc/65nm/lms65ll/pdk_b09pb/Models/Spectre/L65LL_VARMIS33_V111_RF.mdl.scs
Reading file:  /dkits/umc/65nm/lms65ll/pdk_b09pb/Models/Spectre/L65LL_VARDIOP_V101_RF.lib.scs
Reading file:  /dkits/umc/65nm/lms65ll/pdk_b09pb/Models/Spectre/L65LL_VARDIOP_V101_RF.mdl.scs
Reading file:  /dkits/umc/65nm/lms65ll/pdk_b09pb/Models/Spectre/momcaps_array_vp3_rfvcl_V101.lib.scs
Reading file:  /dkits/umc/65nm/lms65ll/pdk_b09pb/Models/Spectre/momcaps_array_vp3_rfvcl_V101.typ.scs
Reading file:  /dkits/umc/65nm/lms65ll/pdk_b09pb/Models/Spectre/momcaps_array_vp4_rfvcl_V101.lib.scs
Reading file:  /dkits/umc/65nm/lms65ll/pdk_b09pb/Models/Spectre/momcaps_array_vp4_rfvcl_V101.typ.scs
Reading file:  /dkits/umc/65nm/lms65ll/pdk_b09pb/Models/Spectre/momcaps_array_vp5_rfvcl_V101.lib.scs
Reading file:  /dkits/umc/65nm/lms65ll/pdk_b09pb/Models/Spectre/momcaps_array_vp5_rfvcl_V101.typ.scs
Reading file:  /dkits/umc/65nm/lms65ll/pdk_b09pb/Models/Spectre/L65_MIMCAPS_20F_KF_V101_RF.lib.scs
Reading file:  /dkits/umc/65nm/lms65ll/pdk_b09pb/Models/Spectre/L65_MIMCAPS_20F_KF_V101_RF.mdl.scs
Reading file:  /dkits/umc/65nm/lms65ll/pdk_b09pb/Models/Spectre/L65LL_RNPPO_V101_RF.lib.scs
Reading file:  /dkits/umc/65nm/lms65ll/pdk_b09pb/Models/Spectre/L65LL_RNPPO_V101_RF.mdl.scs
Reading file:  /dkits/umc/65nm/lms65ll/pdk_b09pb/Models/Spectre/res_poly.va
Reading file:  /dkits/umc/65nm/lms65ll/pdk_b09pb/Models/Spectre/L65LL_RNNPO_V101_RF.lib.scs
Reading file:  /dkits/umc/65nm/lms65ll/pdk_b09pb/Models/Spectre/L65LL_RNNPO_V101_RF.mdl.scs
Reading file:  /dkits/umc/65nm/lms65ll/pdk_b09pb/Models/Spectre/L65LL_RNHR_V101_RF.lib.scs
Reading file:  /dkits/umc/65nm/lms65ll/pdk_b09pb/Models/Spectre/L65LL_RNHR_V101_RF.mdl.scs
Reading file:  /dkits/umc/65nm/lms65ll/pdk_b09pb/Models/Spectre/L65_pad_rf_V101.lib.scs
Reading file:  /dkits/umc/65nm/lms65ll/pdk_b09pb/Models/Spectre/L65_pad_rf_V101.mdl.scs
Time for NDB Parsing: CPU = 722.025 ms, elapsed = 1.07919 s.
Time accumulated: CPU = 766.101 ms, elapsed = 1.07919 s.
Peak resident memory used = 64.4 Mbytes.


Warning from spectre during circuit read-in.
    WARNING (SFE-2654): VerilogA module `respoly_va' override primitive/(verilogA module) `respoly_va'.
    WARNING (SFE-2654): VerilogA module `respoly_va' override primitive/(verilogA module) `respoly_va'.
Warning from spectre during hierarchy flattening.
    WARNING (SFE-102): "input.scs" 61: Parameter `mis_flag', specified for model `p_12_llrvt' of primitive `bsim4', has been ignored because it is an invalid model parameter. Specify a valid model parameter and rerun the simulation. Type `spectre -h bsim4' to get more information on valid model parameters.
    WARNING (SFE-102): "input.scs" 61: Parameter `mf', specified for model `p_12_llrvt' of primitive `bsim4', has been ignored because it is an invalid model parameter. Specify a valid model parameter and rerun the simulation. Type `spectre -h bsim4' to get more information on valid model parameters.
    WARNING (SFE-102): "input.scs" 64: Parameter `mis_flag', specified for model `n_12_llrvt' of primitive `bsim4', has been ignored because it is an invalid model parameter. Specify a valid model parameter and rerun the simulation. Type `spectre -h bsim4' to get more information on valid model parameters.
    WARNING (SFE-102): "input.scs" 64: Parameter `mf', specified for model `n_12_llrvt' of primitive `bsim4', has been ignored because it is an invalid model parameter. Specify a valid model parameter and rerun the simulation. Type `spectre -h bsim4' to get more information on valid model parameters.

Time for Elaboration: CPU = 22.55 ms, elapsed = 23.1669 ms.
Time accumulated: CPU = 788.805 ms, elapsed = 1.10251 s.
Peak resident memory used = 72.1 Mbytes.


Warning from spectre during hierarchy flattening.
    WARNING (SPECTRE-17101): The value 'psf' specified using the 'checklimitdest' option will no longer be supported in future releases.


Time for EDB Visiting: CPU = 998 us, elapsed = 998.974 us.
Time accumulated: CPU = 789.96 ms, elapsed = 1.10366 s.
Peak resident memory used = 72.9 Mbytes.


Global user options:
         psfversion = 1.1.0
            vabstol = 1e-06
            iabstol = 1e-12
               temp = 27
               gmin = 1e-12
             rforce = 1
           maxnotes = 5
           maxwarns = 5
             digits = 5
               cols = 80
             pivrel = 0.001
           sensfile = ../psf/sens.output
     checklimitdest = psf
               save = allpub
             reltol = 0.001
               tnom = 27
             scalem = 1
              scale = 1

Scoped user options:

Circuit inventory:
              nodes 3
              bsim4 2     
          capacitor 1     
            vsource 2     

Analysis and control statement inventory:
               info 7     
               tran 1     

Output statements:
             .probe 0     
           .measure 0     
               save 0     

Time for parsing: CPU = 3.383 ms, elapsed = 5.337 ms.
Time accumulated: CPU = 793.485 ms, elapsed = 1.10914 s.
Peak resident memory used = 74.6 Mbytes.

~~~~~~~~~~~~~~~~~~~~~~
Pre-Simulation Summary
~~~~~~~~~~~~~~~~~~~~~~
~~~~~~~~~~~~~~~~~~~~~~

*************************************************
Transient Analysis `tran': time = (0 s -> 100 ns)
*************************************************
DC simulation time: CPU = 477 us, elapsed = 478.983 us.

Opening the PSFXL file ../psf/tran.tran.tran ...
Important parameter values:
    start = 0 s
    outputstart = 0 s
    stop = 100 ns
    step = 100 ps
    maxstep = 2 ns
    ic = all
    useprevic = no
    skipdc = no
    reltol = 1e-03
    abstol(V) = 1 uV
    abstol(I) = 1 pA
    temp = 27 C
    tnom = 27 C
    tempeffects = all
    errpreset = moderate
    method = traponly
    lteratio = 3.5
    relref = sigglobal
    cmin = 0 F
    gmin = 1 pS


Output and IC/nodeset summary:
                 save   2       (current)
                 save   3       (voltage)


Notice from spectre at time = 2.08267 ns during transient analysis `tran'.
    Found trapezoidal ringing on node NM0:int_d.
Notice from spectre at time = 3.54133 ns during transient analysis `tran'.
    Found trapezoidal ringing on node V0:p.

    tran: time = 3.541 ns    (3.54 %), step = 1.459 ns     (1.46 %)

Notice from spectre at time = 5 ns during transient analysis `tran'.
    Found trapezoidal ringing on node V0:p.
Notice from spectre at time = 5.66203 ns during transient analysis `tran'.
    Found trapezoidal ringing on node V1:p.
Notice from spectre at time = 6.19804 ns during transient analysis `tran'.
    Found trapezoidal ringing on node V1:p.
        Further occurrences of this notice will be suppressed.

    tran: time = 8.635 ns    (8.64 %), step = 1.365 ns     (1.36 %)
    tran: time = 13.53 ns    (13.5 %), step = 1.709 ns     (1.71 %)
    tran: time = 18.64 ns    (18.6 %), step = 1.365 ns     (1.36 %)
    tran: time = 23.53 ns    (23.5 %), step = 1.709 ns     (1.71 %)
    tran: time = 28.64 ns    (28.6 %), step = 1.365 ns     (1.36 %)
    tran: time = 33.53 ns    (33.5 %), step = 1.709 ns     (1.71 %)
    tran: time = 38.64 ns    (38.6 %), step = 1.365 ns     (1.36 %)
    tran: time = 43.53 ns    (43.5 %), step = 1.709 ns     (1.71 %)
    tran: time = 48.64 ns    (48.6 %), step = 1.365 ns     (1.36 %)
    tran: time = 53.53 ns    (53.5 %), step = 1.709 ns     (1.71 %)
    tran: time = 58.64 ns    (58.6 %), step = 1.365 ns     (1.36 %)
    tran: time = 63.53 ns    (63.5 %), step = 1.709 ns     (1.71 %)
    tran: time = 68.64 ns    (68.6 %), step = 1.365 ns     (1.36 %)
    tran: time = 73.53 ns    (73.5 %), step = 1.709 ns     (1.71 %)
    tran: time = 78.64 ns    (78.6 %), step = 1.365 ns     (1.36 %)
    tran: time = 83.53 ns    (83.5 %), step = 1.709 ns     (1.71 %)
    tran: time = 88.64 ns    (88.6 %), step = 1.365 ns     (1.36 %)
    tran: time = 93.53 ns    (93.5 %), step = 1.709 ns     (1.71 %)
    tran: time = 98.64 ns    (98.6 %), step = 1.365 ns     (1.36 %)
Number of accepted tran steps =             594

Notice from spectre during transient analysis `tran'.
    Trapezoidal ringing is detected during tran analysis.
        Please use method=trap for better results and performance.


Maximum value achieved for any signal of each quantity: 
V: V(PM0:int_d) = 1.021 V
I: I(V1:p) = 11.84 uA
If your circuit contains signals of the same quantity that are vastly different in size (such as high voltage circuitry combined with low voltage control circuitry), you should consider specifying global option `bin_relref=yes'.

~~~~~~~~~~~~~~~~~~~~~~~~~~~~~~~~~
Post-Transient Simulation Summary
~~~~~~~~~~~~~~~~~~~~~~~~~~~~~~~~~
   -   To further speed up simulation, consider
          add ++aps on command line
~~~~~~~~~~~~~~~~~~~~~~~~~~~~~~~~~


During simulation, the CPU load for active processors is :
        Spectre  0 (37.6 %)      1 (14.8 %)      2 (2.8 %)       3 (13.0 %)
                 4 (1.8 %)       8 (2.8 %)      11 (1.9 %)      14 (1.8 %)
                18 (100.0 %)    19 (4.5 %)      20 (4.6 %)      21 (1.8 %)
                22 (9.2 %)      44 (1.9 %)      
        Other   
Initial condition solution time: CPU = 537 us, elapsed = 538.826 us.
Intrinsic tran analysis time:    CPU = 36.754 ms, elapsed = 44.642 ms.
Total time required for tran analysis `tran': CPU = 39.809 ms, elapsed = 50.9651 ms.
Time accumulated: CPU = 838.878 ms, elapsed = 1.17299 s.
Peak resident memory used = 77.2 Mbytes.


Notice from spectre.
    84 notices suppressed.

finalTimeOP: writing operating point information to rawfile.

Opening the PSF file ../psf/finalTimeOP.info ...
modelParameter: writing model parameter values to rawfile.

Opening the PSF file ../psf/modelParameter.info ...
element: writing instance parameter values to rawfile.

Opening the PSF file ../psf/element.info ...
outputParameter: writing output parameter values to rawfile.

Opening the PSF file ../psf/outputParameter.info ...
designParamVals: writing netlist parameters to rawfile.

Opening the PSFASCII file ../psf/designParamVals.info ...
primitives: writing primitives to rawfile.

Opening the PSFASCII file ../psf/primitives.info.primitives ...
subckts: writing subcircuits to rawfile.

Opening the PSFASCII file ../psf/subckts.info.subckts ...

Aggregate audit (9:29:38 PM, Wed Dec 21, 2022):
Time used: CPU = 859 ms, elapsed = 1.21 s, util. = 70.8%.
Time spent in licensing: elapsed = 13.4 ms.
Peak memory used = 78.9 Mbytes.
Simulation started at: 9:29:37 PM, Wed Dec 21, 2022, ended at: 9:29:38 PM, Wed Dec 21, 2022, with elapsed time (wall clock): 1.21 s.
spectre completes with 0 errors, 10 warnings, and 8 notices.


********* LOG ENDS **************
**                             **
**                             **
********* LOG STARTS ************



Spectre (R) Circuit Simulator
Version 18.1.0.556.isr13 64bit -- 10 Dec 2019
Copyright (C) 1989-2019 Cadence Design Systems, Inc. All rights reserved worldwide. Cadence and Spectre are registered trademarks of Cadence Design Systems, Inc. All others are the property of their respective holders.

Includes RSA BSAFE(R) Cryptographic or Security Protocol Software from RSA Security, Inc.

User: edauser85   Host: selsrv2.epfl.ch   HostID: B28006F2   PID: 4131
Memory  available: 75.5631 GB  physical: 134.9216 GB
Linux   : Red Hat Enterprise Linux Server release 7.9 (Maipo)
CPU Type: Intel(R) Xeon(R) CPU E5-2650 v4 @ 2.20GHz
        Socket: Processors [Frequency] (Hyperthreaded Processor)
        0:       0 [2632.2] ( 24 ),  2 [2674.1] ( 26 ),  4 [2663.3] ( 28 )
                 6 [2603.8] ( 30 ),  8 [2580.9] ( 32 ), 10 [2581.9] ( 34 )
                12 [2695.3] ( 36 ), 14 [2635.3] ( 38 ), 16 [2603.6] ( 40 )
                18 [2766.4] ( 42 ), 20 [2874.2] ( 44 ), 22 [2674.5] ( 46 )
        1:       1 [2648.4] ( 25 ),  3 [1893.4] ( 27 ),  5 [2506.0] ( 29 )
                 7 [2741.4] ( 31 ),  9 [2766.5] ( 33 ), 11 [2571.4] ( 35 )
                13 [2468.3] ( 37 ), 15 [2509.6] ( 39 ), 17 [2712.0] ( 41 )
                19 [2578.1] ( 43 ), 21 [2618.7] ( 45 ), 23 [2513.8] ( 47 )
        
System load averages (1min, 5min, 15min) : 5.1 %, 3.1 %, 2.0 %
Hyperthreading is enabled


Simulating `input.scs' on selsrv2.epfl.ch at 9:29:39 PM, Wed Dec 21, 2022 (process id: 4131).
Current working directory: /home/edauser85/2022_project/CDS_VISIO/Sim/project_common/INV_tb/adexl/results/data/Interactive.31/3/project_common:INV_tb:1/netlist
Command line:
    /softs/cadence/spectre/18.10/tools/bin/spectre -64 input.scs  \
        +escchars +log ../psf/spectre.out -format psfxl -raw ../psf  \
        +lqtimeout 900 -maxw 5 -maxn 5 -ahdllibdir  \
        /home/edauser85/2022_project/CDS_VISIO/Sim/project_common/INV_tb/adexl/results/data/Interactive.31/sharedData/Job0/ahdl/input.ahdlSimDB  \
        +logstatus

Loading /softs/cadence/spectre/18.10/tools.lnx86/cmi/lib/64bit/5.0/libinfineon_sh.so ...
Loading /softs/cadence/spectre/18.10/tools.lnx86/cmi/lib/64bit/5.0/libphilips_o_sh.so ...
Loading /softs/cadence/spectre/18.10/tools.lnx86/cmi/lib/64bit/5.0/libphilips_sh.so ...
Loading /softs/cadence/spectre/18.10/tools.lnx86/cmi/lib/64bit/5.0/libsparam_sh.so ...
Loading /softs/cadence/spectre/18.10/tools.lnx86/cmi/lib/64bit/5.0/libstmodels_sh.so ...
Reading file:  /home/edauser85/2022_project/CDS_VISIO/Sim/project_common/INV_tb/adexl/results/data/Interactive.31/3/project_common:INV_tb:1/netlist/input.scs
Reading file:  /softs/cadence/spectre/18.10/tools.lnx86/spectre/etc/configs/spectre.cfg
Reading file:  /dkits/umc/65nm/lms65ll/pdk_b09pb/Models/Spectre/l65ll_v151.lib.scs

Warning from spectre in `momcaps_symesh_mmkf', during circuit read-in.
    WARNING (SFE-2296): "/dkits/umc/65nm/lms65ll/pdk_b09pb/umc65ll/../Models/Spectre/l65ll_v151.lib.scs" 13269: The inline subckt definition `momcaps_symesh_mmkf' does not contain any inline components. The `inline' qualifier will therefore be ignored.
Warning from spectre in `momcaps_asmesh_mmkf', during circuit read-in.
    WARNING (SFE-2296): "/dkits/umc/65nm/lms65ll/pdk_b09pb/umc65ll/../Models/Spectre/l65ll_v151.lib.scs" 13355: The inline subckt definition `momcaps_asmesh_mmkf' does not contain any inline components. The `inline' qualifier will therefore be ignored.

Reading file:  /dkits/umc/65nm/lms65ll/pdk_b09pb/Models/Spectre/l65ll_res_v131_s.va
Reading link:  /softs/cadence/spectre/18.10/tools.lnx86/spectre/etc/ahdl/constants.h
Reading file:  /softs/cadence/spectre/18.10/tools.lnx86/spectre/etc/ahdl/constants.vams
Reading link:  /softs/cadence/spectre/18.10/tools.lnx86/spectre/etc/ahdl/discipline.h
Reading file:  /softs/cadence/spectre/18.10/tools.lnx86/spectre/etc/ahdl/disciplines.vams
Reading file:  /dkits/umc/65nm/lms65ll/pdk_b09pb/Models/Spectre/L65LL_RVT12_V101_RF.lib.scs
Reading file:  /dkits/umc/65nm/lms65ll/pdk_b09pb/Models/Spectre/L65LL_RVT12_V101_RF.mdl.scs
Reading file:  /dkits/umc/65nm/lms65ll/pdk_b09pb/Models/Spectre/Rde65.va
Reading file:  /dkits/umc/65nm/lms65ll/pdk_b09pb/Models/Spectre/L65LL_HVT12_V101_RF.lib.scs
Reading file:  /dkits/umc/65nm/lms65ll/pdk_b09pb/Models/Spectre/L65LL_HVT12_V101_RF.mdl.scs
Reading file:  /dkits/umc/65nm/lms65ll/pdk_b09pb/Models/Spectre/Rde_llhvtrfs.va
Reading file:  /dkits/umc/65nm/lms65ll/pdk_b09pb/Models/Spectre/L65LL_LVT12_V101_RF.lib.scs
Reading file:  /dkits/umc/65nm/lms65ll/pdk_b09pb/Models/Spectre/L65LL_LVT12_V101_RF.mdl.scs
Reading file:  /dkits/umc/65nm/lms65ll/pdk_b09pb/Models/Spectre/l65rflvt101s.va
Reading file:  /dkits/umc/65nm/lms65ll/pdk_b09pb/Models/Spectre/L65LL_IO18_V101_RF.lib.scs
Reading file:  /dkits/umc/65nm/lms65ll/pdk_b09pb/Models/Spectre/L65LL_IO18_V101_RF.mdl.scs
Reading file:  /dkits/umc/65nm/lms65ll/pdk_b09pb/Models/Spectre/L65LL_IO25_V101_RF.lib.scs
Reading file:  /dkits/umc/65nm/lms65ll/pdk_b09pb/Models/Spectre/L65LL_IO25_V101_RF.mdl.scs
Reading file:  /dkits/umc/65nm/lms65ll/pdk_b09pb/Models/Spectre/l65ll_25rf_101_s.va
Reading file:  /dkits/umc/65nm/lms65ll/pdk_b09pb/Models/Spectre/L65LL_IO33_V111_RF.lib.scs
Reading file:  /dkits/umc/65nm/lms65ll/pdk_b09pb/Models/Spectre/L65LL_IO33_V111_RF.mdl.scs
Reading file:  /dkits/umc/65nm/lms65ll/pdk_b09pb/Models/Spectre/Rde65LL_IO33_111.va.scs

Warning from spectre in `p_33_llrf', during circuit read-in.
    WARNING (SFE-2296): "/dkits/umc/65nm/lms65ll/pdk_b09pb/umc65ll/../Models/Spectre/L65LL_IO33_V111_RF.mdl.scs" 490: The inline subckt definition `p_33_llrf' does not contain any inline components. The `inline' qualifier will therefore be ignored.

Reading file:  /dkits/umc/65nm/lms65ll/pdk_b09pb/Models/Spectre/L65LL_VARMIS12_V111_RF.lib.scs
Reading file:  /dkits/umc/65nm/lms65ll/pdk_b09pb/Models/Spectre/L65LL_VARMIS12_V111_RF.mdl.scs
Reading file:  /dkits/umc/65nm/lms65ll/pdk_b09pb/Models/Spectre/L65LL_VARMIS18_V111_RF.lib.scs
Reading file:  /dkits/umc/65nm/lms65ll/pdk_b09pb/Models/Spectre/L65LL_VARMIS18_V111_RF.mdl.scs
Reading file:  /dkits/umc/65nm/lms65ll/pdk_b09pb/Models/Spectre/L65LL_VARMIS25_V121_RF.lib.scs
Reading file:  /dkits/umc/65nm/lms65ll/pdk_b09pb/Models/Spectre/L65LL_VARMIS25_V121_RF.mdl.scs
Reading file:  /dkits/umc/65nm/lms65ll/pdk_b09pb/Models/Spectre/L65LL_VARMIS33_V111_RF.lib.scs
Reading file:  /dkits/umc/65nm/lms65ll/pdk_b09pb/Models/Spectre/L65LL_VARMIS33_V111_RF.mdl.scs
Reading file:  /dkits/umc/65nm/lms65ll/pdk_b09pb/Models/Spectre/L65LL_VARDIOP_V101_RF.lib.scs
Reading file:  /dkits/umc/65nm/lms65ll/pdk_b09pb/Models/Spectre/L65LL_VARDIOP_V101_RF.mdl.scs
Reading file:  /dkits/umc/65nm/lms65ll/pdk_b09pb/Models/Spectre/momcaps_array_vp3_rfvcl_V101.lib.scs
Reading file:  /dkits/umc/65nm/lms65ll/pdk_b09pb/Models/Spectre/momcaps_array_vp3_rfvcl_V101.typ.scs
Reading file:  /dkits/umc/65nm/lms65ll/pdk_b09pb/Models/Spectre/momcaps_array_vp4_rfvcl_V101.lib.scs
Reading file:  /dkits/umc/65nm/lms65ll/pdk_b09pb/Models/Spectre/momcaps_array_vp4_rfvcl_V101.typ.scs
Reading file:  /dkits/umc/65nm/lms65ll/pdk_b09pb/Models/Spectre/momcaps_array_vp5_rfvcl_V101.lib.scs
Reading file:  /dkits/umc/65nm/lms65ll/pdk_b09pb/Models/Spectre/momcaps_array_vp5_rfvcl_V101.typ.scs
Reading file:  /dkits/umc/65nm/lms65ll/pdk_b09pb/Models/Spectre/L65_MIMCAPS_20F_KF_V101_RF.lib.scs
Reading file:  /dkits/umc/65nm/lms65ll/pdk_b09pb/Models/Spectre/L65_MIMCAPS_20F_KF_V101_RF.mdl.scs
Reading file:  /dkits/umc/65nm/lms65ll/pdk_b09pb/Models/Spectre/L65LL_RNPPO_V101_RF.lib.scs
Reading file:  /dkits/umc/65nm/lms65ll/pdk_b09pb/Models/Spectre/L65LL_RNPPO_V101_RF.mdl.scs
Reading file:  /dkits/umc/65nm/lms65ll/pdk_b09pb/Models/Spectre/res_poly.va
Reading file:  /dkits/umc/65nm/lms65ll/pdk_b09pb/Models/Spectre/L65LL_RNNPO_V101_RF.lib.scs
Reading file:  /dkits/umc/65nm/lms65ll/pdk_b09pb/Models/Spectre/L65LL_RNNPO_V101_RF.mdl.scs
Reading file:  /dkits/umc/65nm/lms65ll/pdk_b09pb/Models/Spectre/L65LL_RNHR_V101_RF.lib.scs
Reading file:  /dkits/umc/65nm/lms65ll/pdk_b09pb/Models/Spectre/L65LL_RNHR_V101_RF.mdl.scs
Reading file:  /dkits/umc/65nm/lms65ll/pdk_b09pb/Models/Spectre/L65_pad_rf_V101.lib.scs
Reading file:  /dkits/umc/65nm/lms65ll/pdk_b09pb/Models/Spectre/L65_pad_rf_V101.mdl.scs
Time for NDB Parsing: CPU = 727.841 ms, elapsed = 1.02057 s.
Time accumulated: CPU = 770.413 ms, elapsed = 1.02058 s.
Peak resident memory used = 64.4 Mbytes.


Warning from spectre during circuit read-in.
    WARNING (SFE-2654): VerilogA module `respoly_va' override primitive/(verilogA module) `respoly_va'.
    WARNING (SFE-2654): VerilogA module `respoly_va' override primitive/(verilogA module) `respoly_va'.
Warning from spectre during hierarchy flattening.
    WARNING (SFE-102): "input.scs" 61: Parameter `mis_flag', specified for model `p_12_llrvt' of primitive `bsim4', has been ignored because it is an invalid model parameter. Specify a valid model parameter and rerun the simulation. Type `spectre -h bsim4' to get more information on valid model parameters.
    WARNING (SFE-102): "input.scs" 61: Parameter `mf', specified for model `p_12_llrvt' of primitive `bsim4', has been ignored because it is an invalid model parameter. Specify a valid model parameter and rerun the simulation. Type `spectre -h bsim4' to get more information on valid model parameters.
    WARNING (SFE-102): "input.scs" 64: Parameter `mis_flag', specified for model `n_12_llrvt' of primitive `bsim4', has been ignored because it is an invalid model parameter. Specify a valid model parameter and rerun the simulation. Type `spectre -h bsim4' to get more information on valid model parameters.
    WARNING (SFE-102): "input.scs" 64: Parameter `mf', specified for model `n_12_llrvt' of primitive `bsim4', has been ignored because it is an invalid model parameter. Specify a valid model parameter and rerun the simulation. Type `spectre -h bsim4' to get more information on valid model parameters.

Time for Elaboration: CPU = 25.889 ms, elapsed = 227.869 ms.
Time accumulated: CPU = 796.452 ms, elapsed = 1.2486 s.
Peak resident memory used = 72.1 Mbytes.


Warning from spectre during hierarchy flattening.
    WARNING (SPECTRE-17101): The value 'psf' specified using the 'checklimitdest' option will no longer be supported in future releases.


Time for EDB Visiting: CPU = 1.143 ms, elapsed = 1.15585 ms.
Time accumulated: CPU = 797.739 ms, elapsed = 1.2499 s.
Peak resident memory used = 72.9 Mbytes.


Global user options:
         psfversion = 1.1.0
            vabstol = 1e-06
            iabstol = 1e-12
               temp = 27
               gmin = 1e-12
             rforce = 1
           maxnotes = 5
           maxwarns = 5
             digits = 5
               cols = 80
             pivrel = 0.001
           sensfile = ../psf/sens.output
     checklimitdest = psf
               save = allpub
             reltol = 0.001
               tnom = 27
             scalem = 1
              scale = 1

Scoped user options:

Circuit inventory:
              nodes 3
              bsim4 2     
          capacitor 1     
            vsource 2     

Analysis and control statement inventory:
               info 7     
               tran 1     

Output statements:
             .probe 0     
           .measure 0     
               save 0     

Time for parsing: CPU = 3.837 ms, elapsed = 527.996 ms.
Time accumulated: CPU = 801.696 ms, elapsed = 1.778 s.
Peak resident memory used = 74.6 Mbytes.

~~~~~~~~~~~~~~~~~~~~~~
Pre-Simulation Summary
~~~~~~~~~~~~~~~~~~~~~~
~~~~~~~~~~~~~~~~~~~~~~

*************************************************
Transient Analysis `tran': time = (0 s -> 100 ns)
*************************************************
DC simulation time: CPU = 547 us, elapsed = 548.124 us.

Opening the PSFXL file ../psf/tran.tran.tran ...
Important parameter values:
    start = 0 s
    outputstart = 0 s
    stop = 100 ns
    step = 100 ps
    maxstep = 2 ns
    ic = all
    useprevic = no
    skipdc = no
    reltol = 1e-03
    abstol(V) = 1 uV
    abstol(I) = 1 pA
    temp = 27 C
    tnom = 27 C
    tempeffects = all
    errpreset = moderate
    method = traponly
    lteratio = 3.5
    relref = sigglobal
    cmin = 0 F
    gmin = 1 pS


Output and IC/nodeset summary:
                 save   2       (current)
                 save   3       (voltage)


Notice from spectre at time = 824.041 ps during transient analysis `tran'.
    Found trapezoidal ringing on node PM0:int_d.
Notice from spectre at time = 1.53468 ns during transient analysis `tran'.
    Found trapezoidal ringing on node PM0:int_d.
Notice from spectre at time = 2.95597 ns during transient analysis `tran'.
    Found trapezoidal ringing on node PM0:int_d.

    tran: time = 2.956 ns    (2.96 %), step = 1.421 ns     (1.42 %)

Notice from spectre at time = 3.97798 ns during transient analysis `tran'.
    Found trapezoidal ringing on node PM0:int_d.
Notice from spectre at time = 5 ns during transient analysis `tran'.
    Found trapezoidal ringing on node PM0:int_d.
        Further occurrences of this notice will be suppressed.

    tran: time = 7.734 ns    (7.73 %), step = 1.299 ns      (1.3 %)
    tran: time = 13.1 ns     (13.1 %), step = 1.492 ns     (1.49 %)
    tran: time = 17.73 ns    (17.7 %), step = 1.299 ns      (1.3 %)
    tran: time = 23.1 ns     (23.1 %), step = 1.492 ns     (1.49 %)
    tran: time = 27.73 ns    (27.7 %), step = 1.299 ns      (1.3 %)
    tran: time = 33.1 ns     (33.1 %), step = 1.492 ns     (1.49 %)
    tran: time = 37.73 ns    (37.7 %), step = 1.299 ns      (1.3 %)
    tran: time = 43.1 ns     (43.1 %), step = 1.492 ns     (1.49 %)
    tran: time = 47.73 ns    (47.7 %), step = 1.299 ns      (1.3 %)
    tran: time = 53.1 ns     (53.1 %), step = 1.492 ns     (1.49 %)
    tran: time = 57.73 ns    (57.7 %), step = 1.299 ns      (1.3 %)
    tran: time = 63.1 ns     (63.1 %), step = 1.492 ns     (1.49 %)
    tran: time = 67.73 ns    (67.7 %), step = 1.299 ns      (1.3 %)
    tran: time = 73.1 ns     (73.1 %), step = 1.492 ns     (1.49 %)
    tran: time = 77.73 ns    (77.7 %), step = 1.299 ns      (1.3 %)
    tran: time = 83.1 ns     (83.1 %), step = 1.492 ns     (1.49 %)
    tran: time = 87.73 ns    (87.7 %), step = 1.299 ns      (1.3 %)
    tran: time = 93.1 ns     (93.1 %), step = 1.492 ns     (1.49 %)
    tran: time = 97.73 ns    (97.7 %), step = 1.299 ns      (1.3 %)
Number of accepted tran steps =             586

Notice from spectre during transient analysis `tran'.
    Trapezoidal ringing is detected during tran analysis.
        Please use method=trap for better results and performance.


Maximum value achieved for any signal of each quantity: 
V: V(PM0:int_d) = 1.02 V
I: I(V1:p) = 14.23 uA
If your circuit contains signals of the same quantity that are vastly different in size (such as high voltage circuitry combined with low voltage control circuitry), you should consider specifying global option `bin_relref=yes'.

~~~~~~~~~~~~~~~~~~~~~~~~~~~~~~~~~
Post-Transient Simulation Summary
~~~~~~~~~~~~~~~~~~~~~~~~~~~~~~~~~
   -   To further speed up simulation, consider
          add ++aps on command line
~~~~~~~~~~~~~~~~~~~~~~~~~~~~~~~~~


During simulation, the CPU load for active processors is :
        Spectre  0 (4.5 %)       1 (24.1 %)      2 (4.5 %)       3 (5.1 %)
                 4 (2.9 %)       5 (1.7 %)       6 (4.7 %)      10 (1.1 %)
                11 (2.8 %)      14 (2.3 %)      15 (1.1 %)      17 (1.1 %)
                18 (46.9 %)     19 (2.3 %)      20 (9.1 %)      22 (16.6 %)
                23 (2.3 %)      
        Other   
Initial condition solution time: CPU = 603 us, elapsed = 604.868 us.
Intrinsic tran analysis time:    CPU = 36.358 ms, elapsed = 45.615 ms.
Total time required for tran analysis `tran': CPU = 39.433 ms, elapsed = 51.1489 ms.
Time accumulated: CPU = 847.628 ms, elapsed = 1.84887 s.
Peak resident memory used = 77.2 Mbytes.


Notice from spectre.
    96 notices suppressed.

finalTimeOP: writing operating point information to rawfile.

Opening the PSF file ../psf/finalTimeOP.info ...
modelParameter: writing model parameter values to rawfile.

Opening the PSF file ../psf/modelParameter.info ...
element: writing instance parameter values to rawfile.

Opening the PSF file ../psf/element.info ...
outputParameter: writing output parameter values to rawfile.

Opening the PSF file ../psf/outputParameter.info ...
designParamVals: writing netlist parameters to rawfile.

Opening the PSFASCII file ../psf/designParamVals.info ...
primitives: writing primitives to rawfile.

Opening the PSFASCII file ../psf/primitives.info.primitives ...
subckts: writing subcircuits to rawfile.

Opening the PSFASCII file ../psf/subckts.info.subckts ...

Aggregate audit (9:29:41 PM, Wed Dec 21, 2022):
Time used: CPU = 868 ms, elapsed = 1.9 s, util. = 45.7%.
Time spent in licensing: elapsed = 13.1 ms.
Peak memory used = 78.9 Mbytes.
Simulation started at: 9:29:39 PM, Wed Dec 21, 2022, ended at: 9:29:41 PM, Wed Dec 21, 2022, with elapsed time (wall clock): 1.9 s.
spectre completes with 0 errors, 10 warnings, and 8 notices.


********* LOG ENDS **************
**                             **
**                             **
********* LOG STARTS ************



Spectre (R) Circuit Simulator
Version 18.1.0.556.isr13 64bit -- 10 Dec 2019
Copyright (C) 1989-2019 Cadence Design Systems, Inc. All rights reserved worldwide. Cadence and Spectre are registered trademarks of Cadence Design Systems, Inc. All others are the property of their respective holders.

Includes RSA BSAFE(R) Cryptographic or Security Protocol Software from RSA Security, Inc.

User: edauser85   Host: selsrv2.epfl.ch   HostID: B28006F2   PID: 4255
Memory  available: 75.5152 GB  physical: 134.9216 GB
Linux   : Red Hat Enterprise Linux Server release 7.9 (Maipo)
CPU Type: Intel(R) Xeon(R) CPU E5-2650 v4 @ 2.20GHz
        Socket: Processors [Frequency] (Hyperthreaded Processor)
        0:       0 [2543.6] ( 24 ),  2 [2599.6] ( 26 ),  4 [2561.5] ( 28 )
                 6 [2538.2] ( 30 ),  8 [2536.4] ( 32 ), 10 [2510.2] ( 34 )
                12 [2500.4] ( 36 ), 14 [2534.3] ( 38 ), 16 [2696.2] ( 40 )
                18 [2694.4] ( 42 ), 20 [2614.9] ( 44 ), 22 [2551.3] ( 46 )
        1:       1 [2511.8] ( 25 ),  3 [2460.6] ( 27 ),  5 [2678.0] ( 29 )
                 7 [2591.0] ( 31 ),  9 [2643.5] ( 33 ), 11 [2616.4] ( 35 )
                13 [2666.7] ( 37 ), 15 [2668.8] ( 39 ), 17 [2582.8] ( 41 )
                19 [2536.6] ( 43 ), 21 [2518.4] ( 45 ), 23 [2575.2] ( 47 )
        
System load averages (1min, 5min, 15min) : 5.1 %, 3.1 %, 2.0 %
Hyperthreading is enabled


Simulating `input.scs' on selsrv2.epfl.ch at 9:29:42 PM, Wed Dec 21, 2022 (process id: 4255).
Current working directory: /home/edauser85/2022_project/CDS_VISIO/Sim/project_common/INV_tb/adexl/results/data/Interactive.31/4/project_common:INV_tb:1/netlist
Command line:
    /softs/cadence/spectre/18.10/tools/bin/spectre -64 input.scs  \
        +escchars +log ../psf/spectre.out -format psfxl -raw ../psf  \
        +lqtimeout 900 -maxw 5 -maxn 5 -ahdllibdir  \
        /home/edauser85/2022_project/CDS_VISIO/Sim/project_common/INV_tb/adexl/results/data/Interactive.31/sharedData/Job0/ahdl/input.ahdlSimDB  \
        +logstatus

Loading /softs/cadence/spectre/18.10/tools.lnx86/cmi/lib/64bit/5.0/libinfineon_sh.so ...
Loading /softs/cadence/spectre/18.10/tools.lnx86/cmi/lib/64bit/5.0/libphilips_o_sh.so ...
Loading /softs/cadence/spectre/18.10/tools.lnx86/cmi/lib/64bit/5.0/libphilips_sh.so ...
Loading /softs/cadence/spectre/18.10/tools.lnx86/cmi/lib/64bit/5.0/libsparam_sh.so ...
Loading /softs/cadence/spectre/18.10/tools.lnx86/cmi/lib/64bit/5.0/libstmodels_sh.so ...
Reading file:  /home/edauser85/2022_project/CDS_VISIO/Sim/project_common/INV_tb/adexl/results/data/Interactive.31/4/project_common:INV_tb:1/netlist/input.scs
Reading file:  /softs/cadence/spectre/18.10/tools.lnx86/spectre/etc/configs/spectre.cfg
Reading file:  /dkits/umc/65nm/lms65ll/pdk_b09pb/Models/Spectre/l65ll_v151.lib.scs

Warning from spectre in `momcaps_symesh_mmkf', during circuit read-in.
    WARNING (SFE-2296): "/dkits/umc/65nm/lms65ll/pdk_b09pb/umc65ll/../Models/Spectre/l65ll_v151.lib.scs" 13269: The inline subckt definition `momcaps_symesh_mmkf' does not contain any inline components. The `inline' qualifier will therefore be ignored.
Warning from spectre in `momcaps_asmesh_mmkf', during circuit read-in.
    WARNING (SFE-2296): "/dkits/umc/65nm/lms65ll/pdk_b09pb/umc65ll/../Models/Spectre/l65ll_v151.lib.scs" 13355: The inline subckt definition `momcaps_asmesh_mmkf' does not contain any inline components. The `inline' qualifier will therefore be ignored.

Reading file:  /dkits/umc/65nm/lms65ll/pdk_b09pb/Models/Spectre/l65ll_res_v131_s.va
Reading link:  /softs/cadence/spectre/18.10/tools.lnx86/spectre/etc/ahdl/constants.h
Reading file:  /softs/cadence/spectre/18.10/tools.lnx86/spectre/etc/ahdl/constants.vams
Reading link:  /softs/cadence/spectre/18.10/tools.lnx86/spectre/etc/ahdl/discipline.h
Reading file:  /softs/cadence/spectre/18.10/tools.lnx86/spectre/etc/ahdl/disciplines.vams
Reading file:  /dkits/umc/65nm/lms65ll/pdk_b09pb/Models/Spectre/L65LL_RVT12_V101_RF.lib.scs
Reading file:  /dkits/umc/65nm/lms65ll/pdk_b09pb/Models/Spectre/L65LL_RVT12_V101_RF.mdl.scs
Reading file:  /dkits/umc/65nm/lms65ll/pdk_b09pb/Models/Spectre/Rde65.va
Reading file:  /dkits/umc/65nm/lms65ll/pdk_b09pb/Models/Spectre/L65LL_HVT12_V101_RF.lib.scs
Reading file:  /dkits/umc/65nm/lms65ll/pdk_b09pb/Models/Spectre/L65LL_HVT12_V101_RF.mdl.scs
Reading file:  /dkits/umc/65nm/lms65ll/pdk_b09pb/Models/Spectre/Rde_llhvtrfs.va
Reading file:  /dkits/umc/65nm/lms65ll/pdk_b09pb/Models/Spectre/L65LL_LVT12_V101_RF.lib.scs
Reading file:  /dkits/umc/65nm/lms65ll/pdk_b09pb/Models/Spectre/L65LL_LVT12_V101_RF.mdl.scs
Reading file:  /dkits/umc/65nm/lms65ll/pdk_b09pb/Models/Spectre/l65rflvt101s.va
Reading file:  /dkits/umc/65nm/lms65ll/pdk_b09pb/Models/Spectre/L65LL_IO18_V101_RF.lib.scs
Reading file:  /dkits/umc/65nm/lms65ll/pdk_b09pb/Models/Spectre/L65LL_IO18_V101_RF.mdl.scs
Reading file:  /dkits/umc/65nm/lms65ll/pdk_b09pb/Models/Spectre/L65LL_IO25_V101_RF.lib.scs
Reading file:  /dkits/umc/65nm/lms65ll/pdk_b09pb/Models/Spectre/L65LL_IO25_V101_RF.mdl.scs
Reading file:  /dkits/umc/65nm/lms65ll/pdk_b09pb/Models/Spectre/l65ll_25rf_101_s.va
Reading file:  /dkits/umc/65nm/lms65ll/pdk_b09pb/Models/Spectre/L65LL_IO33_V111_RF.lib.scs
Reading file:  /dkits/umc/65nm/lms65ll/pdk_b09pb/Models/Spectre/L65LL_IO33_V111_RF.mdl.scs
Reading file:  /dkits/umc/65nm/lms65ll/pdk_b09pb/Models/Spectre/Rde65LL_IO33_111.va.scs

Warning from spectre in `p_33_llrf', during circuit read-in.
    WARNING (SFE-2296): "/dkits/umc/65nm/lms65ll/pdk_b09pb/umc65ll/../Models/Spectre/L65LL_IO33_V111_RF.mdl.scs" 490: The inline subckt definition `p_33_llrf' does not contain any inline components. The `inline' qualifier will therefore be ignored.

Reading file:  /dkits/umc/65nm/lms65ll/pdk_b09pb/Models/Spectre/L65LL_VARMIS12_V111_RF.lib.scs
Reading file:  /dkits/umc/65nm/lms65ll/pdk_b09pb/Models/Spectre/L65LL_VARMIS12_V111_RF.mdl.scs
Reading file:  /dkits/umc/65nm/lms65ll/pdk_b09pb/Models/Spectre/L65LL_VARMIS18_V111_RF.lib.scs
Reading file:  /dkits/umc/65nm/lms65ll/pdk_b09pb/Models/Spectre/L65LL_VARMIS18_V111_RF.mdl.scs
Reading file:  /dkits/umc/65nm/lms65ll/pdk_b09pb/Models/Spectre/L65LL_VARMIS25_V121_RF.lib.scs
Reading file:  /dkits/umc/65nm/lms65ll/pdk_b09pb/Models/Spectre/L65LL_VARMIS25_V121_RF.mdl.scs
Reading file:  /dkits/umc/65nm/lms65ll/pdk_b09pb/Models/Spectre/L65LL_VARMIS33_V111_RF.lib.scs
Reading file:  /dkits/umc/65nm/lms65ll/pdk_b09pb/Models/Spectre/L65LL_VARMIS33_V111_RF.mdl.scs
Reading file:  /dkits/umc/65nm/lms65ll/pdk_b09pb/Models/Spectre/L65LL_VARDIOP_V101_RF.lib.scs
Reading file:  /dkits/umc/65nm/lms65ll/pdk_b09pb/Models/Spectre/L65LL_VARDIOP_V101_RF.mdl.scs
Reading file:  /dkits/umc/65nm/lms65ll/pdk_b09pb/Models/Spectre/momcaps_array_vp3_rfvcl_V101.lib.scs
Reading file:  /dkits/umc/65nm/lms65ll/pdk_b09pb/Models/Spectre/momcaps_array_vp3_rfvcl_V101.typ.scs
Reading file:  /dkits/umc/65nm/lms65ll/pdk_b09pb/Models/Spectre/momcaps_array_vp4_rfvcl_V101.lib.scs
Reading file:  /dkits/umc/65nm/lms65ll/pdk_b09pb/Models/Spectre/momcaps_array_vp4_rfvcl_V101.typ.scs
Reading file:  /dkits/umc/65nm/lms65ll/pdk_b09pb/Models/Spectre/momcaps_array_vp5_rfvcl_V101.lib.scs
Reading file:  /dkits/umc/65nm/lms65ll/pdk_b09pb/Models/Spectre/momcaps_array_vp5_rfvcl_V101.typ.scs
Reading file:  /dkits/umc/65nm/lms65ll/pdk_b09pb/Models/Spectre/L65_MIMCAPS_20F_KF_V101_RF.lib.scs
Reading file:  /dkits/umc/65nm/lms65ll/pdk_b09pb/Models/Spectre/L65_MIMCAPS_20F_KF_V101_RF.mdl.scs
Reading file:  /dkits/umc/65nm/lms65ll/pdk_b09pb/Models/Spectre/L65LL_RNPPO_V101_RF.lib.scs
Reading file:  /dkits/umc/65nm/lms65ll/pdk_b09pb/Models/Spectre/L65LL_RNPPO_V101_RF.mdl.scs
Reading file:  /dkits/umc/65nm/lms65ll/pdk_b09pb/Models/Spectre/res_poly.va
Reading file:  /dkits/umc/65nm/lms65ll/pdk_b09pb/Models/Spectre/L65LL_RNNPO_V101_RF.lib.scs
Reading file:  /dkits/umc/65nm/lms65ll/pdk_b09pb/Models/Spectre/L65LL_RNNPO_V101_RF.mdl.scs
Reading file:  /dkits/umc/65nm/lms65ll/pdk_b09pb/Models/Spectre/L65LL_RNHR_V101_RF.lib.scs
Reading file:  /dkits/umc/65nm/lms65ll/pdk_b09pb/Models/Spectre/L65LL_RNHR_V101_RF.mdl.scs
Reading file:  /dkits/umc/65nm/lms65ll/pdk_b09pb/Models/Spectre/L65_pad_rf_V101.lib.scs
Reading file:  /dkits/umc/65nm/lms65ll/pdk_b09pb/Models/Spectre/L65_pad_rf_V101.mdl.scs
Time for NDB Parsing: CPU = 713 ms, elapsed = 1.09707 s.
Time accumulated: CPU = 755.61 ms, elapsed = 1.09707 s.
Peak resident memory used = 64.4 Mbytes.


Warning from spectre during circuit read-in.
    WARNING (SFE-2654): VerilogA module `respoly_va' override primitive/(verilogA module) `respoly_va'.
    WARNING (SFE-2654): VerilogA module `respoly_va' override primitive/(verilogA module) `respoly_va'.
Warning from spectre during hierarchy flattening.
    WARNING (SFE-102): "input.scs" 61: Parameter `mis_flag', specified for model `p_12_llrvt' of primitive `bsim4', has been ignored because it is an invalid model parameter. Specify a valid model parameter and rerun the simulation. Type `spectre -h bsim4' to get more information on valid model parameters.
    WARNING (SFE-102): "input.scs" 61: Parameter `mf', specified for model `p_12_llrvt' of primitive `bsim4', has been ignored because it is an invalid model parameter. Specify a valid model parameter and rerun the simulation. Type `spectre -h bsim4' to get more information on valid model parameters.
    WARNING (SFE-102): "input.scs" 64: Parameter `mis_flag', specified for model `n_12_llrvt' of primitive `bsim4', has been ignored because it is an invalid model parameter. Specify a valid model parameter and rerun the simulation. Type `spectre -h bsim4' to get more information on valid model parameters.
    WARNING (SFE-102): "input.scs" 64: Parameter `mf', specified for model `n_12_llrvt' of primitive `bsim4', has been ignored because it is an invalid model parameter. Specify a valid model parameter and rerun the simulation. Type `spectre -h bsim4' to get more information on valid model parameters.

Time for Elaboration: CPU = 25.76 ms, elapsed = 26.2101 ms.
Time accumulated: CPU = 781.491 ms, elapsed = 1.1234 s.
Peak resident memory used = 72.1 Mbytes.


Warning from spectre during hierarchy flattening.
    WARNING (SPECTRE-17101): The value 'psf' specified using the 'checklimitdest' option will no longer be supported in future releases.


Time for EDB Visiting: CPU = 1.01 ms, elapsed = 1.00994 ms.
Time accumulated: CPU = 782.63 ms, elapsed = 1.12454 s.
Peak resident memory used = 72.9 Mbytes.


Global user options:
         psfversion = 1.1.0
            vabstol = 1e-06
            iabstol = 1e-12
               temp = 27
               gmin = 1e-12
             rforce = 1
           maxnotes = 5
           maxwarns = 5
             digits = 5
               cols = 80
             pivrel = 0.001
           sensfile = ../psf/sens.output
     checklimitdest = psf
               save = allpub
             reltol = 0.001
               tnom = 27
             scalem = 1
              scale = 1

Scoped user options:

Circuit inventory:
              nodes 3
              bsim4 2     
          capacitor 1     
            vsource 2     

Analysis and control statement inventory:
               info 7     
               tran 1     

Output statements:
             .probe 0     
           .measure 0     
               save 0     

Time for parsing: CPU = 3.172 ms, elapsed = 5.08308 ms.
Time accumulated: CPU = 785.906 ms, elapsed = 1.12973 s.
Peak resident memory used = 74.6 Mbytes.

~~~~~~~~~~~~~~~~~~~~~~
Pre-Simulation Summary
~~~~~~~~~~~~~~~~~~~~~~
~~~~~~~~~~~~~~~~~~~~~~

*************************************************
Transient Analysis `tran': time = (0 s -> 100 ns)
*************************************************
DC simulation time: CPU = 463 us, elapsed = 462.77 us.

Opening the PSFXL file ../psf/tran.tran.tran ...
Important parameter values:
    start = 0 s
    outputstart = 0 s
    stop = 100 ns
    step = 100 ps
    maxstep = 2 ns
    ic = all
    useprevic = no
    skipdc = no
    reltol = 1e-03
    abstol(V) = 1 uV
    abstol(I) = 1 pA
    temp = 27 C
    tnom = 27 C
    tempeffects = all
    errpreset = moderate
    method = traponly
    lteratio = 3.5
    relref = sigglobal
    cmin = 0 F
    gmin = 1 pS


Output and IC/nodeset summary:
                 save   2       (current)
                 save   3       (voltage)


Notice from spectre at time = 1.09514 ns during transient analysis `tran'.
    Found trapezoidal ringing on node NM0:int_d.
Notice from spectre at time = 2.07357 ns during transient analysis `tran'.
    Found trapezoidal ringing on node NM0:int_d.
Notice from spectre at time = 3.53679 ns during transient analysis `tran'.
    Found trapezoidal ringing on node V1:p.

    tran: time = 3.537 ns    (3.54 %), step = 1.463 ns     (1.46 %)

Notice from spectre at time = 5 ns during transient analysis `tran'.
    Found trapezoidal ringing on node V1:p.
Notice from spectre at time = 5.37456 ns during transient analysis `tran'.
    Found trapezoidal ringing on node V1:p.
        Further occurrences of this notice will be suppressed.

    tran: time = 8.494 ns    (8.49 %), step = 1.506 ns     (1.51 %)
    tran: time = 13.57 ns    (13.6 %), step = 1.425 ns     (1.43 %)
    tran: time = 18.49 ns    (18.5 %), step = 1.506 ns     (1.51 %)
    tran: time = 23.57 ns    (23.6 %), step = 1.425 ns     (1.43 %)
    tran: time = 28.49 ns    (28.5 %), step = 1.506 ns     (1.51 %)
    tran: time = 33.57 ns    (33.6 %), step = 1.425 ns     (1.43 %)
    tran: time = 38.49 ns    (38.5 %), step = 1.506 ns     (1.51 %)
    tran: time = 43.57 ns    (43.6 %), step = 1.425 ns     (1.43 %)
    tran: time = 48.49 ns    (48.5 %), step = 1.506 ns     (1.51 %)
    tran: time = 53.57 ns    (53.6 %), step = 1.425 ns     (1.43 %)
    tran: time = 58.49 ns    (58.5 %), step = 1.506 ns     (1.51 %)
    tran: time = 63.57 ns    (63.6 %), step = 1.425 ns     (1.43 %)
    tran: time = 68.49 ns    (68.5 %), step = 1.506 ns     (1.51 %)
    tran: time = 73.57 ns    (73.6 %), step = 1.425 ns     (1.43 %)
    tran: time = 78.49 ns    (78.5 %), step = 1.506 ns     (1.51 %)
    tran: time = 83.57 ns    (83.6 %), step = 1.425 ns     (1.43 %)
    tran: time = 88.49 ns    (88.5 %), step = 1.506 ns     (1.51 %)
    tran: time = 93.57 ns    (93.6 %), step = 1.425 ns     (1.43 %)
    tran: time = 98.49 ns    (98.5 %), step = 1.506 ns     (1.51 %)
Number of accepted tran steps =             556

Notice from spectre during transient analysis `tran'.
    Trapezoidal ringing is detected during tran analysis.
        Please use method=trap for better results and performance.


Maximum value achieved for any signal of each quantity: 
V: V(PM0:int_d) = 1.019 V
I: I(V1:p) = 16.35 uA
If your circuit contains signals of the same quantity that are vastly different in size (such as high voltage circuitry combined with low voltage control circuitry), you should consider specifying global option `bin_relref=yes'.

~~~~~~~~~~~~~~~~~~~~~~~~~~~~~~~~~
Post-Transient Simulation Summary
~~~~~~~~~~~~~~~~~~~~~~~~~~~~~~~~~
   -   To further speed up simulation, consider
          add ++aps on command line
~~~~~~~~~~~~~~~~~~~~~~~~~~~~~~~~~


During simulation, the CPU load for active processors is :
        Spectre  0 (24.3 %)      1 (32.7 %)      3 (9.9 %)       4 (2.7 %)
                 5 (4.5 %)       6 (2.8 %)       9 (1.8 %)      10 (1.8 %)
                11 (3.6 %)      17 (1.8 %)      18 (100.0 %)    20 (6.2 %)
                22 (4.5 %)      44 (2.9 %)      
        Other   
Initial condition solution time: CPU = 516 us, elapsed = 518.084 us.
Intrinsic tran analysis time:    CPU = 34.846 ms, elapsed = 43.3021 ms.
Total time required for tran analysis `tran': CPU = 37.834 ms, elapsed = 49.293 ms.
Time accumulated: CPU = 829.76 ms, elapsed = 1.19268 s.
Peak resident memory used = 77.2 Mbytes.


Notice from spectre.
    95 notices suppressed.

finalTimeOP: writing operating point information to rawfile.

Opening the PSF file ../psf/finalTimeOP.info ...
modelParameter: writing model parameter values to rawfile.

Opening the PSF file ../psf/modelParameter.info ...
element: writing instance parameter values to rawfile.

Opening the PSF file ../psf/element.info ...
outputParameter: writing output parameter values to rawfile.

Opening the PSF file ../psf/outputParameter.info ...
designParamVals: writing netlist parameters to rawfile.

Opening the PSFASCII file ../psf/designParamVals.info ...
primitives: writing primitives to rawfile.

Opening the PSFASCII file ../psf/primitives.info.primitives ...
subckts: writing subcircuits to rawfile.

Opening the PSFASCII file ../psf/subckts.info.subckts ...

Aggregate audit (9:29:43 PM, Wed Dec 21, 2022):
Time used: CPU = 849 ms, elapsed = 1.23 s, util. = 69%.
Time spent in licensing: elapsed = 12.9 ms.
Peak memory used = 78.9 Mbytes.
Simulation started at: 9:29:42 PM, Wed Dec 21, 2022, ended at: 9:29:43 PM, Wed Dec 21, 2022, with elapsed time (wall clock): 1.23 s.
spectre completes with 0 errors, 10 warnings, and 8 notices.


********* LOG ENDS **************
**                             **
**                             **
********* LOG STARTS ************



Spectre (R) Circuit Simulator
Version 18.1.0.556.isr13 64bit -- 10 Dec 2019
Copyright (C) 1989-2019 Cadence Design Systems, Inc. All rights reserved worldwide. Cadence and Spectre are registered trademarks of Cadence Design Systems, Inc. All others are the property of their respective holders.

Includes RSA BSAFE(R) Cryptographic or Security Protocol Software from RSA Security, Inc.

User: edauser85   Host: selsrv2.epfl.ch   HostID: B28006F2   PID: 4380
Memory  available: 75.4169 GB  physical: 134.9216 GB
Linux   : Red Hat Enterprise Linux Server release 7.9 (Maipo)
CPU Type: Intel(R) Xeon(R) CPU E5-2650 v4 @ 2.20GHz
        Socket: Processors [Frequency] (Hyperthreaded Processor)
        0:       0 [2501.3] ( 24 ),  2 [2707.0] ( 26 ),  4 [2501.2] ( 28 )
                 6 [2593.8] ( 30 ),  8 [2550.6] ( 32 ), 10 [2504.8] ( 34 )
                12 [2613.8] ( 36 ), 14 [2597.7] ( 38 ), 16 [2500.6] ( 40 )
                18 [2639.5] ( 42 ), 20 [2592.0] ( 44 ), 22 [2525.4] ( 46 )
        1:       1 [2562.4] ( 25 ),  3 [2541.7] ( 27 ),  5 [2630.8] ( 29 )
                 7 [2699.1] ( 31 ),  9 [2617.9] ( 33 ), 11 [2604.2] ( 35 )
                13 [2529.7] ( 37 ), 15 [2846.3] ( 39 ), 17 [2744.2] ( 41 )
                19 [2631.2] ( 43 ), 21 [2614.8] ( 45 ), 23 [2614.0] ( 47 )
        
System load averages (1min, 5min, 15min) : 5.0 %, 3.1 %, 2.0 %
Hyperthreading is enabled


Simulating `input.scs' on selsrv2.epfl.ch at 9:29:45 PM, Wed Dec 21, 2022 (process id: 4380).
Current working directory: /home/edauser85/2022_project/CDS_VISIO/Sim/project_common/INV_tb/adexl/results/data/Interactive.31/5/project_common:INV_tb:1/netlist
Command line:
    /softs/cadence/spectre/18.10/tools/bin/spectre -64 input.scs  \
        +escchars +log ../psf/spectre.out -format psfxl -raw ../psf  \
        +lqtimeout 900 -maxw 5 -maxn 5 -ahdllibdir  \
        /home/edauser85/2022_project/CDS_VISIO/Sim/project_common/INV_tb/adexl/results/data/Interactive.31/sharedData/Job0/ahdl/input.ahdlSimDB  \
        +logstatus

Loading /softs/cadence/spectre/18.10/tools.lnx86/cmi/lib/64bit/5.0/libinfineon_sh.so ...
Loading /softs/cadence/spectre/18.10/tools.lnx86/cmi/lib/64bit/5.0/libphilips_o_sh.so ...
Loading /softs/cadence/spectre/18.10/tools.lnx86/cmi/lib/64bit/5.0/libphilips_sh.so ...
Loading /softs/cadence/spectre/18.10/tools.lnx86/cmi/lib/64bit/5.0/libsparam_sh.so ...
Loading /softs/cadence/spectre/18.10/tools.lnx86/cmi/lib/64bit/5.0/libstmodels_sh.so ...
Reading file:  /home/edauser85/2022_project/CDS_VISIO/Sim/project_common/INV_tb/adexl/results/data/Interactive.31/5/project_common:INV_tb:1/netlist/input.scs
Reading file:  /softs/cadence/spectre/18.10/tools.lnx86/spectre/etc/configs/spectre.cfg
Reading file:  /dkits/umc/65nm/lms65ll/pdk_b09pb/Models/Spectre/l65ll_v151.lib.scs

Warning from spectre in `momcaps_symesh_mmkf', during circuit read-in.
    WARNING (SFE-2296): "/dkits/umc/65nm/lms65ll/pdk_b09pb/umc65ll/../Models/Spectre/l65ll_v151.lib.scs" 13269: The inline subckt definition `momcaps_symesh_mmkf' does not contain any inline components. The `inline' qualifier will therefore be ignored.
Warning from spectre in `momcaps_asmesh_mmkf', during circuit read-in.
    WARNING (SFE-2296): "/dkits/umc/65nm/lms65ll/pdk_b09pb/umc65ll/../Models/Spectre/l65ll_v151.lib.scs" 13355: The inline subckt definition `momcaps_asmesh_mmkf' does not contain any inline components. The `inline' qualifier will therefore be ignored.

Reading file:  /dkits/umc/65nm/lms65ll/pdk_b09pb/Models/Spectre/l65ll_res_v131_s.va
Reading link:  /softs/cadence/spectre/18.10/tools.lnx86/spectre/etc/ahdl/constants.h
Reading file:  /softs/cadence/spectre/18.10/tools.lnx86/spectre/etc/ahdl/constants.vams
Reading link:  /softs/cadence/spectre/18.10/tools.lnx86/spectre/etc/ahdl/discipline.h
Reading file:  /softs/cadence/spectre/18.10/tools.lnx86/spectre/etc/ahdl/disciplines.vams
Reading file:  /dkits/umc/65nm/lms65ll/pdk_b09pb/Models/Spectre/L65LL_RVT12_V101_RF.lib.scs
Reading file:  /dkits/umc/65nm/lms65ll/pdk_b09pb/Models/Spectre/L65LL_RVT12_V101_RF.mdl.scs
Reading file:  /dkits/umc/65nm/lms65ll/pdk_b09pb/Models/Spectre/Rde65.va
Reading file:  /dkits/umc/65nm/lms65ll/pdk_b09pb/Models/Spectre/L65LL_HVT12_V101_RF.lib.scs
Reading file:  /dkits/umc/65nm/lms65ll/pdk_b09pb/Models/Spectre/L65LL_HVT12_V101_RF.mdl.scs
Reading file:  /dkits/umc/65nm/lms65ll/pdk_b09pb/Models/Spectre/Rde_llhvtrfs.va
Reading file:  /dkits/umc/65nm/lms65ll/pdk_b09pb/Models/Spectre/L65LL_LVT12_V101_RF.lib.scs
Reading file:  /dkits/umc/65nm/lms65ll/pdk_b09pb/Models/Spectre/L65LL_LVT12_V101_RF.mdl.scs
Reading file:  /dkits/umc/65nm/lms65ll/pdk_b09pb/Models/Spectre/l65rflvt101s.va
Reading file:  /dkits/umc/65nm/lms65ll/pdk_b09pb/Models/Spectre/L65LL_IO18_V101_RF.lib.scs
Reading file:  /dkits/umc/65nm/lms65ll/pdk_b09pb/Models/Spectre/L65LL_IO18_V101_RF.mdl.scs
Reading file:  /dkits/umc/65nm/lms65ll/pdk_b09pb/Models/Spectre/L65LL_IO25_V101_RF.lib.scs
Reading file:  /dkits/umc/65nm/lms65ll/pdk_b09pb/Models/Spectre/L65LL_IO25_V101_RF.mdl.scs
Reading file:  /dkits/umc/65nm/lms65ll/pdk_b09pb/Models/Spectre/l65ll_25rf_101_s.va
Reading file:  /dkits/umc/65nm/lms65ll/pdk_b09pb/Models/Spectre/L65LL_IO33_V111_RF.lib.scs
Reading file:  /dkits/umc/65nm/lms65ll/pdk_b09pb/Models/Spectre/L65LL_IO33_V111_RF.mdl.scs
Reading file:  /dkits/umc/65nm/lms65ll/pdk_b09pb/Models/Spectre/Rde65LL_IO33_111.va.scs

Warning from spectre in `p_33_llrf', during circuit read-in.
    WARNING (SFE-2296): "/dkits/umc/65nm/lms65ll/pdk_b09pb/umc65ll/../Models/Spectre/L65LL_IO33_V111_RF.mdl.scs" 490: The inline subckt definition `p_33_llrf' does not contain any inline components. The `inline' qualifier will therefore be ignored.

Reading file:  /dkits/umc/65nm/lms65ll/pdk_b09pb/Models/Spectre/L65LL_VARMIS12_V111_RF.lib.scs
Reading file:  /dkits/umc/65nm/lms65ll/pdk_b09pb/Models/Spectre/L65LL_VARMIS12_V111_RF.mdl.scs
Reading file:  /dkits/umc/65nm/lms65ll/pdk_b09pb/Models/Spectre/L65LL_VARMIS18_V111_RF.lib.scs
Reading file:  /dkits/umc/65nm/lms65ll/pdk_b09pb/Models/Spectre/L65LL_VARMIS18_V111_RF.mdl.scs
Reading file:  /dkits/umc/65nm/lms65ll/pdk_b09pb/Models/Spectre/L65LL_VARMIS25_V121_RF.lib.scs
Reading file:  /dkits/umc/65nm/lms65ll/pdk_b09pb/Models/Spectre/L65LL_VARMIS25_V121_RF.mdl.scs
Reading file:  /dkits/umc/65nm/lms65ll/pdk_b09pb/Models/Spectre/L65LL_VARMIS33_V111_RF.lib.scs
Reading file:  /dkits/umc/65nm/lms65ll/pdk_b09pb/Models/Spectre/L65LL_VARMIS33_V111_RF.mdl.scs
Reading file:  /dkits/umc/65nm/lms65ll/pdk_b09pb/Models/Spectre/L65LL_VARDIOP_V101_RF.lib.scs
Reading file:  /dkits/umc/65nm/lms65ll/pdk_b09pb/Models/Spectre/L65LL_VARDIOP_V101_RF.mdl.scs
Reading file:  /dkits/umc/65nm/lms65ll/pdk_b09pb/Models/Spectre/momcaps_array_vp3_rfvcl_V101.lib.scs
Reading file:  /dkits/umc/65nm/lms65ll/pdk_b09pb/Models/Spectre/momcaps_array_vp3_rfvcl_V101.typ.scs
Reading file:  /dkits/umc/65nm/lms65ll/pdk_b09pb/Models/Spectre/momcaps_array_vp4_rfvcl_V101.lib.scs
Reading file:  /dkits/umc/65nm/lms65ll/pdk_b09pb/Models/Spectre/momcaps_array_vp4_rfvcl_V101.typ.scs
Reading file:  /dkits/umc/65nm/lms65ll/pdk_b09pb/Models/Spectre/momcaps_array_vp5_rfvcl_V101.lib.scs
Reading file:  /dkits/umc/65nm/lms65ll/pdk_b09pb/Models/Spectre/momcaps_array_vp5_rfvcl_V101.typ.scs
Reading file:  /dkits/umc/65nm/lms65ll/pdk_b09pb/Models/Spectre/L65_MIMCAPS_20F_KF_V101_RF.lib.scs
Reading file:  /dkits/umc/65nm/lms65ll/pdk_b09pb/Models/Spectre/L65_MIMCAPS_20F_KF_V101_RF.mdl.scs
Reading file:  /dkits/umc/65nm/lms65ll/pdk_b09pb/Models/Spectre/L65LL_RNPPO_V101_RF.lib.scs
Reading file:  /dkits/umc/65nm/lms65ll/pdk_b09pb/Models/Spectre/L65LL_RNPPO_V101_RF.mdl.scs
Reading file:  /dkits/umc/65nm/lms65ll/pdk_b09pb/Models/Spectre/res_poly.va
Reading file:  /dkits/umc/65nm/lms65ll/pdk_b09pb/Models/Spectre/L65LL_RNNPO_V101_RF.lib.scs
Reading file:  /dkits/umc/65nm/lms65ll/pdk_b09pb/Models/Spectre/L65LL_RNNPO_V101_RF.mdl.scs
Reading file:  /dkits/umc/65nm/lms65ll/pdk_b09pb/Models/Spectre/L65LL_RNHR_V101_RF.lib.scs
Reading file:  /dkits/umc/65nm/lms65ll/pdk_b09pb/Models/Spectre/L65LL_RNHR_V101_RF.mdl.scs
Reading file:  /dkits/umc/65nm/lms65ll/pdk_b09pb/Models/Spectre/L65_pad_rf_V101.lib.scs
Reading file:  /dkits/umc/65nm/lms65ll/pdk_b09pb/Models/Spectre/L65_pad_rf_V101.mdl.scs
Time for NDB Parsing: CPU = 730.497 ms, elapsed = 1.33833 s.
Time accumulated: CPU = 774.717 ms, elapsed = 1.33834 s.
Peak resident memory used = 64.4 Mbytes.


Warning from spectre during circuit read-in.
    WARNING (SFE-2654): VerilogA module `respoly_va' override primitive/(verilogA module) `respoly_va'.
    WARNING (SFE-2654): VerilogA module `respoly_va' override primitive/(verilogA module) `respoly_va'.
Warning from spectre during hierarchy flattening.
    WARNING (SFE-102): "input.scs" 61: Parameter `mis_flag', specified for model `p_12_llrvt' of primitive `bsim4', has been ignored because it is an invalid model parameter. Specify a valid model parameter and rerun the simulation. Type `spectre -h bsim4' to get more information on valid model parameters.
    WARNING (SFE-102): "input.scs" 61: Parameter `mf', specified for model `p_12_llrvt' of primitive `bsim4', has been ignored because it is an invalid model parameter. Specify a valid model parameter and rerun the simulation. Type `spectre -h bsim4' to get more information on valid model parameters.
    WARNING (SFE-102): "input.scs" 64: Parameter `mis_flag', specified for model `n_12_llrvt' of primitive `bsim4', has been ignored because it is an invalid model parameter. Specify a valid model parameter and rerun the simulation. Type `spectre -h bsim4' to get more information on valid model parameters.
    WARNING (SFE-102): "input.scs" 64: Parameter `mf', specified for model `n_12_llrvt' of primitive `bsim4', has been ignored because it is an invalid model parameter. Specify a valid model parameter and rerun the simulation. Type `spectre -h bsim4' to get more information on valid model parameters.

Time for Elaboration: CPU = 26.421 ms, elapsed = 27.3762 ms.
Time accumulated: CPU = 801.267 ms, elapsed = 1.36584 s.
Peak resident memory used = 72.1 Mbytes.


Warning from spectre during hierarchy flattening.
    WARNING (SPECTRE-17101): The value 'psf' specified using the 'checklimitdest' option will no longer be supported in future releases.


Time for EDB Visiting: CPU = 1.022 ms, elapsed = 1.02091 ms.
Time accumulated: CPU = 802.45 ms, elapsed = 1.36702 s.
Peak resident memory used = 72.9 Mbytes.


Global user options:
         psfversion = 1.1.0
            vabstol = 1e-06
            iabstol = 1e-12
               temp = 27
               gmin = 1e-12
             rforce = 1
           maxnotes = 5
           maxwarns = 5
             digits = 5
               cols = 80
             pivrel = 0.001
           sensfile = ../psf/sens.output
     checklimitdest = psf
               save = allpub
             reltol = 0.001
               tnom = 27
             scalem = 1
              scale = 1

Scoped user options:

Circuit inventory:
              nodes 3
              bsim4 2     
          capacitor 1     
            vsource 2     

Analysis and control statement inventory:
               info 7     
               tran 1     

Output statements:
             .probe 0     
           .measure 0     
               save 0     

Time for parsing: CPU = 3.35 ms, elapsed = 5.37205 ms.
Time accumulated: CPU = 805.908 ms, elapsed = 1.3725 s.
Peak resident memory used = 74.6 Mbytes.

~~~~~~~~~~~~~~~~~~~~~~
[...]

Notice from spectre during transient analysis `tran'.
    Trapezoidal ringing is detected during tran analysis.
        Please use method=trap for better results and performance.


Maximum value achieved for any signal of each quantity: 
V: V(NM0:int_d) = 1.014 V
I: I(V1:p) = 24.52 uA
If your circuit contains signals of the same quantity that are vastly different in size (such as high voltage circuitry combined with low voltage control circuitry), you should consider specifying global option `bin_relref=yes'.

~~~~~~~~~~~~~~~~~~~~~~~~~~~~~~~~~
Post-Transient Simulation Summary
~~~~~~~~~~~~~~~~~~~~~~~~~~~~~~~~~
   -   To further speed up simulation, consider
          add ++aps on command line
~~~~~~~~~~~~~~~~~~~~~~~~~~~~~~~~~


During simulation, the CPU load for active processors is :
        Spectre  0 (4.9 %)       1 (10.7 %)      2 (5.0 %)       4 (1.7 %)
                 6 (8.3 %)       8 (3.3 %)       9 (1.7 %)      10 (13.3 %)
                11 (2.5 %)      12 (3.3 %)      13 (1.7 %)      14 (3.3 %)
                15 (1.7 %)      18 (100.0 %)    19 (2.5 %)      20 (8.3 %)
                22 (57.0 %)     32 (3.3 %)      33 (1.7 %)      44 (2.6 %)
        Other   
Initial condition solution time: CPU = 650 us, elapsed = 651.121 us.
Intrinsic tran analysis time:    CPU = 38.219 ms, elapsed = 45.562 ms.
Total time required for tran analysis `tran': CPU = 41.215 ms, elapsed = 51.626 ms.
Time accumulated: CPU = 880.119 ms, elapsed = 1.29091 s.
Peak resident memory used = 77.2 Mbytes.


Notice from spectre.
    77 notices suppressed.

finalTimeOP: writing operating point information to rawfile.

Opening the PSF file ../psf/finalTimeOP.info ...
modelParameter: writing model parameter values to rawfile.

Opening the PSF file ../psf/modelParameter.info ...
element: writing instance parameter values to rawfile.

Opening the PSF file ../psf/element.info ...
outputParameter: writing output parameter values to rawfile.

Opening the PSF file ../psf/outputParameter.info ...
designParamVals: writing netlist parameters to rawfile.

Opening the PSFASCII file ../psf/designParamVals.info ...
primitives: writing primitives to rawfile.

Opening the PSFASCII file ../psf/primitives.info.primitives ...
subckts: writing subcircuits to rawfile.

Opening the PSFASCII file ../psf/subckts.info.subckts ...

Aggregate audit (9:30:03 PM, Wed Dec 21, 2022):
Time used: CPU = 899 ms, elapsed = 1.33 s, util. = 67.5%.
Time spent in licensing: elapsed = 27.3 ms.
Peak memory used = 78.9 Mbytes.
Simulation started at: 9:30:01 PM, Wed Dec 21, 2022, ended at: 9:30:03 PM, Wed Dec 21, 2022, with elapsed time (wall clock): 1.33 s.
spectre completes with 0 errors, 10 warnings, and 8 notices.


********* LOG ENDS **************
**                             **
**                             **
********* LOG STARTS ************



Spectre (R) Circuit Simulator
Version 18.1.0.556.isr13 64bit -- 10 Dec 2019
Copyright (C) 1989-2019 Cadence Design Systems, Inc. All rights reserved worldwide. Cadence and Spectre are registered trademarks of Cadence Design Systems, Inc. All others are the property of their respective holders.

Includes RSA BSAFE(R) Cryptographic or Security Protocol Software from RSA Security, Inc.

User: edauser85   Host: selsrv2.epfl.ch   HostID: B28006F2   PID: 5080
Memory  available: 74.6205 GB  physical: 134.9216 GB
Linux   : Red Hat Enterprise Linux Server release 7.9 (Maipo)
CPU Type: Intel(R) Xeon(R) CPU E5-2650 v4 @ 2.20GHz
        Socket: Processors [Frequency] (Hyperthreaded Processor)
        0:       0 [2703.7] ( 24 ),  2 [2616.0] ( 26 ),  4 [2634.4] ( 28 )
                 6 [2685.7] ( 30 ),  8 [2529.9] ( 32 ), 10 [2717.9] ( 34 )
                12 [2611.0] ( 36 ), 14 [2530.7] ( 38 ), 16 [2619.6] ( 40 )
                18 [2820.6] ( 42 ), 20 [2740.2] ( 44 ), 22 [2603.8] ( 46 )
        1:       1 [2690.8] ( 25 ),  3 [2372.8] ( 27 ),  5 [2763.8] ( 29 )
                 7 [2567.2] ( 31 ),  9 [2607.3] ( 33 ), 11 [2745.6] ( 35 )
                13 [2630.9] ( 37 ), 15 [2601.1] ( 39 ), 17 [2835.3] ( 41 )
                19 [2628.9] ( 43 ), 21 [2251.6] ( 45 ), 23 [2677.2] ( 47 )
        
System load averages (1min, 5min, 15min) : 5.8 %, 3.4 %, 2.1 %
Hyperthreading is enabled


Simulating `input.scs' on selsrv2.epfl.ch at 9:30:04 PM, Wed Dec 21, 2022 (process id: 5080).
Current working directory: /home/edauser85/2022_project/CDS_VISIO/Sim/project_common/INV_tb/adexl/results/data/Interactive.31/10/project_common:INV_tb:1/netlist
Command line:
    /softs/cadence/spectre/18.10/tools/bin/spectre -64 input.scs  \
        +escchars +log ../psf/spectre.out -format psfxl -raw ../psf  \
        +lqtimeout 900 -maxw 5 -maxn 5 -ahdllibdir  \
        /home/edauser85/2022_project/CDS_VISIO/Sim/project_common/INV_tb/adexl/results/data/Interactive.31/sharedData/Job0/ahdl/input.ahdlSimDB  \
        +logstatus

Loading /softs/cadence/spectre/18.10/tools.lnx86/cmi/lib/64bit/5.0/libinfineon_sh.so ...
Loading /softs/cadence/spectre/18.10/tools.lnx86/cmi/lib/64bit/5.0/libphilips_o_sh.so ...
Loading /softs/cadence/spectre/18.10/tools.lnx86/cmi/lib/64bit/5.0/libphilips_sh.so ...
Loading /softs/cadence/spectre/18.10/tools.lnx86/cmi/lib/64bit/5.0/libsparam_sh.so ...
Loading /softs/cadence/spectre/18.10/tools.lnx86/cmi/lib/64bit/5.0/libstmodels_sh.so ...
Reading file:  /home/edauser85/2022_project/CDS_VISIO/Sim/project_common/INV_tb/adexl/results/data/Interactive.31/10/project_common:INV_tb:1/netlist/input.scs
Reading file:  /softs/cadence/spectre/18.10/tools.lnx86/spectre/etc/configs/spectre.cfg
Reading file:  /dkits/umc/65nm/lms65ll/pdk_b09pb/Models/Spectre/l65ll_v151.lib.scs

Warning from spectre in `momcaps_symesh_mmkf', during circuit read-in.
    WARNING (SFE-2296): "/dkits/umc/65nm/lms65ll/pdk_b09pb/umc65ll/../Models/Spectre/l65ll_v151.lib.scs" 13269: The inline subckt definition `momcaps_symesh_mmkf' does not contain any inline components. The `inline' qualifier will therefore be ignored.
Warning from spectre in `momcaps_asmesh_mmkf', during circuit read-in.
    WARNING (SFE-2296): "/dkits/umc/65nm/lms65ll/pdk_b09pb/umc65ll/../Models/Spectre/l65ll_v151.lib.scs" 13355: The inline subckt definition `momcaps_asmesh_mmkf' does not contain any inline components. The `inline' qualifier will therefore be ignored.

Reading file:  /dkits/umc/65nm/lms65ll/pdk_b09pb/Models/Spectre/l65ll_res_v131_s.va
Reading link:  /softs/cadence/spectre/18.10/tools.lnx86/spectre/etc/ahdl/constants.h
Reading file:  /softs/cadence/spectre/18.10/tools.lnx86/spectre/etc/ahdl/constants.vams
Reading link:  /softs/cadence/spectre/18.10/tools.lnx86/spectre/etc/ahdl/discipline.h
Reading file:  /softs/cadence/spectre/18.10/tools.lnx86/spectre/etc/ahdl/disciplines.vams
Reading file:  /dkits/umc/65nm/lms65ll/pdk_b09pb/Models/Spectre/L65LL_RVT12_V101_RF.lib.scs
Reading file:  /dkits/umc/65nm/lms65ll/pdk_b09pb/Models/Spectre/L65LL_RVT12_V101_RF.mdl.scs
Reading file:  /dkits/umc/65nm/lms65ll/pdk_b09pb/Models/Spectre/Rde65.va
Reading file:  /dkits/umc/65nm/lms65ll/pdk_b09pb/Models/Spectre/L65LL_HVT12_V101_RF.lib.scs
Reading file:  /dkits/umc/65nm/lms65ll/pdk_b09pb/Models/Spectre/L65LL_HVT12_V101_RF.mdl.scs
Reading file:  /dkits/umc/65nm/lms65ll/pdk_b09pb/Models/Spectre/Rde_llhvtrfs.va
Reading file:  /dkits/umc/65nm/lms65ll/pdk_b09pb/Models/Spectre/L65LL_LVT12_V101_RF.lib.scs
Reading file:  /dkits/umc/65nm/lms65ll/pdk_b09pb/Models/Spectre/L65LL_LVT12_V101_RF.mdl.scs
Reading file:  /dkits/umc/65nm/lms65ll/pdk_b09pb/Models/Spectre/l65rflvt101s.va
Reading file:  /dkits/umc/65nm/lms65ll/pdk_b09pb/Models/Spectre/L65LL_IO18_V101_RF.lib.scs
Reading file:  /dkits/umc/65nm/lms65ll/pdk_b09pb/Models/Spectre/L65LL_IO18_V101_RF.mdl.scs
Reading file:  /dkits/umc/65nm/lms65ll/pdk_b09pb/Models/Spectre/L65LL_IO25_V101_RF.lib.scs
Reading file:  /dkits/umc/65nm/lms65ll/pdk_b09pb/Models/Spectre/L65LL_IO25_V101_RF.mdl.scs
Reading file:  /dkits/umc/65nm/lms65ll/pdk_b09pb/Models/Spectre/l65ll_25rf_101_s.va
Reading file:  /dkits/umc/65nm/lms65ll/pdk_b09pb/Models/Spectre/L65LL_IO33_V111_RF.lib.scs
Reading file:  /dkits/umc/65nm/lms65ll/pdk_b09pb/Models/Spectre/L65LL_IO33_V111_RF.mdl.scs
Reading file:  /dkits/umc/65nm/lms65ll/pdk_b09pb/Models/Spectre/Rde65LL_IO33_111.va.scs

Warning from spectre in `p_33_llrf', during circuit read-in.
    WARNING (SFE-2296): "/dkits/umc/65nm/lms65ll/pdk_b09pb/umc65ll/../Models/Spectre/L65LL_IO33_V111_RF.mdl.scs" 490: The inline subckt definition `p_33_llrf' does not contain any inline components. The `inline' qualifier will therefore be ignored.

Reading file:  /dkits/umc/65nm/lms65ll/pdk_b09pb/Models/Spectre/L65LL_VARMIS12_V111_RF.lib.scs
Reading file:  /dkits/umc/65nm/lms65ll/pdk_b09pb/Models/Spectre/L65LL_VARMIS12_V111_RF.mdl.scs
Reading file:  /dkits/umc/65nm/lms65ll/pdk_b09pb/Models/Spectre/L65LL_VARMIS18_V111_RF.lib.scs
Reading file:  /dkits/umc/65nm/lms65ll/pdk_b09pb/Models/Spectre/L65LL_VARMIS18_V111_RF.mdl.scs
Reading file:  /dkits/umc/65nm/lms65ll/pdk_b09pb/Models/Spectre/L65LL_VARMIS25_V121_RF.lib.scs
Reading file:  /dkits/umc/65nm/lms65ll/pdk_b09pb/Models/Spectre/L65LL_VARMIS25_V121_RF.mdl.scs
Reading file:  /dkits/umc/65nm/lms65ll/pdk_b09pb/Models/Spectre/L65LL_VARMIS33_V111_RF.lib.scs
Reading file:  /dkits/umc/65nm/lms65ll/pdk_b09pb/Models/Spectre/L65LL_VARMIS33_V111_RF.mdl.scs
Reading file:  /dkits/umc/65nm/lms65ll/pdk_b09pb/Models/Spectre/L65LL_VARDIOP_V101_RF.lib.scs
Reading file:  /dkits/umc/65nm/lms65ll/pdk_b09pb/Models/Spectre/L65LL_VARDIOP_V101_RF.mdl.scs
Reading file:  /dkits/umc/65nm/lms65ll/pdk_b09pb/Models/Spectre/momcaps_array_vp3_rfvcl_V101.lib.scs
Reading file:  /dkits/umc/65nm/lms65ll/pdk_b09pb/Models/Spectre/momcaps_array_vp3_rfvcl_V101.typ.scs
Reading file:  /dkits/umc/65nm/lms65ll/pdk_b09pb/Models/Spectre/momcaps_array_vp4_rfvcl_V101.lib.scs
Reading file:  /dkits/umc/65nm/lms65ll/pdk_b09pb/Models/Spectre/momcaps_array_vp4_rfvcl_V101.typ.scs
Reading file:  /dkits/umc/65nm/lms65ll/pdk_b09pb/Models/Spectre/momcaps_array_vp5_rfvcl_V101.lib.scs
Reading file:  /dkits/umc/65nm/lms65ll/pdk_b09pb/Models/Spectre/momcaps_array_vp5_rfvcl_V101.typ.scs
Reading file:  /dkits/umc/65nm/lms65ll/pdk_b09pb/Models/Spectre/L65_MIMCAPS_20F_KF_V101_RF.lib.scs
Reading file:  /dkits/umc/65nm/lms65ll/pdk_b09pb/Models/Spectre/L65_MIMCAPS_20F_KF_V101_RF.mdl.scs
Reading file:  /dkits/umc/65nm/lms65ll/pdk_b09pb/Models/Spectre/L65LL_RNPPO_V101_RF.lib.scs
Reading file:  /dkits/umc/65nm/lms65ll/pdk_b09pb/Models/Spectre/L65LL_RNPPO_V101_RF.mdl.scs
Reading file:  /dkits/umc/65nm/lms65ll/pdk_b09pb/Models/Spectre/res_poly.va
Reading file:  /dkits/umc/65nm/lms65ll/pdk_b09pb/Models/Spectre/L65LL_RNNPO_V101_RF.lib.scs
Reading file:  /dkits/umc/65nm/lms65ll/pdk_b09pb/Models/Spectre/L65LL_RNNPO_V101_RF.mdl.scs
Reading file:  /dkits/umc/65nm/lms65ll/pdk_b09pb/Models/Spectre/L65LL_RNHR_V101_RF.lib.scs
Reading file:  /dkits/umc/65nm/lms65ll/pdk_b09pb/Models/Spectre/L65LL_RNHR_V101_RF.mdl.scs
Reading file:  /dkits/umc/65nm/lms65ll/pdk_b09pb/Models/Spectre/L65_pad_rf_V101.lib.scs
Reading file:  /dkits/umc/65nm/lms65ll/pdk_b09pb/Models/Spectre/L65_pad_rf_V101.mdl.scs
Time for NDB Parsing: CPU = 736.031 ms, elapsed = 1.19024 s.
Time accumulated: CPU = 780.043 ms, elapsed = 1.19024 s.
Peak resident memory used = 64.4 Mbytes.


Warning from spectre during circuit read-in.
    WARNING (SFE-2654): VerilogA module `respoly_va' override primitive/(verilogA module) `respoly_va'.
    WARNING (SFE-2654): VerilogA module `respoly_va' override primitive/(verilogA module) `respoly_va'.
Warning from spectre during hierarchy flattening.
    WARNING (SFE-102): "input.scs" 61: Parameter `mis_flag', specified for model `p_12_llrvt' of primitive `bsim4', has been ignored because it is an invalid model parameter. Specify a valid model parameter and rerun the simulation. Type `spectre -h bsim4' to get more information on valid model parameters.
    WARNING (SFE-102): "input.scs" 61: Parameter `mf', specified for model `p_12_llrvt' of primitive `bsim4', has been ignored because it is an invalid model parameter. Specify a valid model parameter and rerun the simulation. Type `spectre -h bsim4' to get more information on valid model parameters.
    WARNING (SFE-102): "input.scs" 64: Parameter `mis_flag', specified for model `n_12_llrvt' of primitive `bsim4', has been ignored because it is an invalid model parameter. Specify a valid model parameter and rerun the simulation. Type `spectre -h bsim4' to get more information on valid model parameters.
    WARNING (SFE-102): "input.scs" 64: Parameter `mf', specified for model `n_12_llrvt' of primitive `bsim4', has been ignored because it is an invalid model parameter. Specify a valid model parameter and rerun the simulation. Type `spectre -h bsim4' to get more information on valid model parameters.

Time for Elaboration: CPU = 23.328 ms, elapsed = 23.9549 ms.
Time accumulated: CPU = 803.5 ms, elapsed = 1.21432 s.
Peak resident memory used = 72.1 Mbytes.


Warning from spectre during hierarchy flattening.
    WARNING (SPECTRE-17101): The value 'psf' specified using the 'checklimitdest' option will no longer be supported in future releases.


Time for EDB Visiting: CPU = 1.057 ms, elapsed = 1.05786 ms.
Time accumulated: CPU = 804.674 ms, elapsed = 1.2155 s.
Peak resident memory used = 72.9 Mbytes.


Global user options:
         psfversion = 1.1.0
            vabstol = 1e-06
            iabstol = 1e-12
               temp = 27
               gmin = 1e-12
             rforce = 1
           maxnotes = 5
           maxwarns = 5
             digits = 5
               cols = 80
             pivrel = 0.001
           sensfile = ../psf/sens.output
     checklimitdest = psf
               save = allpub
             reltol = 0.001
               tnom = 27
             scalem = 1
              scale = 1

Scoped user options:

Circuit inventory:
              nodes 3
              bsim4 2     
          capacitor 1     
            vsource 2     

Analysis and control statement inventory:
               info 7     
               tran 1     

Output statements:
             .probe 0     
           .measure 0     
               save 0     

Time for parsing: CPU = 3.237 ms, elapsed = 5.43904 ms.
Time accumulated: CPU = 808.035 ms, elapsed = 1.22106 s.
Peak resident memory used = 74.6 Mbytes.

~~~~~~~~~~~~~~~~~~~~~~
Pre-Simulation Summary
~~~~~~~~~~~~~~~~~~~~~~
~~~~~~~~~~~~~~~~~~~~~~

*************************************************
Transient Analysis `tran': time = (0 s -> 100 ns)
*************************************************
DC simulation time: CPU = 482 us, elapsed = 482.082 us.

Opening the PSFXL file ../psf/tran.tran.tran ...
Important parameter values:
    start = 0 s
    outputstart = 0 s
    stop = 100 ns
    step = 100 ps
    maxstep = 2 ns
    ic = all
    useprevic = no
    skipdc = no
    reltol = 1e-03
    abstol(V) = 1 uV
    abstol(I) = 1 pA
    temp = 27 C
    tnom = 27 C
    tempeffects = all
    errpreset = moderate
    method = traponly
    lteratio = 3.5
    relref = sigglobal
    cmin = 0 F
    gmin = 1 pS


Output and IC/nodeset summary:
                 save   2       (current)
                 save   3       (voltage)


Notice from spectre at time = 533.176 ps during transient analysis `tran'.
    Found trapezoidal ringing on node V1:p.
Notice from spectre at time = 911.367 ps during transient analysis `tran'.
    Found trapezoidal ringing on node V1:p.
Notice from spectre at time = 1.66775 ns during transient analysis `tran'.
    Found trapezoidal ringing on node V1:p.
Notice from spectre at time = 3.18051 ns during transient analysis `tran'.
    Found trapezoidal ringing on node V1:p.

    tran: time = 3.181 ns    (3.18 %), step = 1.513 ns     (1.51 %)

Notice from spectre at time = 5 ns during transient analysis `tran'.
    Found trapezoidal ringing on node V1:p.
        Further occurrences of this notice will be suppressed.

    tran: time = 8.608 ns    (8.61 %), step = 1.392 ns     (1.39 %)
    tran: time = 13.59 ns    (13.6 %), step = 1.412 ns     (1.41 %)
    tran: time = 18.61 ns    (18.6 %), step = 1.392 ns     (1.39 %)
    tran: time = 23.59 ns    (23.6 %), step = 1.412 ns     (1.41 %)
    tran: time = 28.61 ns    (28.6 %), step = 1.392 ns     (1.39 %)
    tran: time = 33.59 ns    (33.6 %), step = 1.412 ns     (1.41 %)
    tran: time = 38.61 ns    (38.6 %), step = 1.392 ns     (1.39 %)
    tran: time = 43.59 ns    (43.6 %), step = 1.412 ns     (1.41 %)
    tran: time = 48.61 ns    (48.6 %), step = 1.392 ns     (1.39 %)
    tran: time = 53.59 ns    (53.6 %), step = 1.412 ns     (1.41 %)
    tran: time = 58.61 ns    (58.6 %), step = 1.392 ns     (1.39 %)
    tran: time = 63.59 ns    (63.6 %), step = 1.412 ns     (1.41 %)
    tran: time = 68.61 ns    (68.6 %), step = 1.392 ns     (1.39 %)
    tran: time = 73.59 ns    (73.6 %), step = 1.412 ns     (1.41 %)
    tran: time = 78.61 ns    (78.6 %), step = 1.392 ns     (1.39 %)
    tran: time = 83.59 ns    (83.6 %), step = 1.412 ns     (1.41 %)
    tran: time = 88.61 ns    (88.6 %), step = 1.392 ns     (1.39 %)
    tran: time = 93.59 ns    (93.6 %), step = 1.412 ns     (1.41 %)
    tran: time = 98.61 ns    (98.6 %), step = 1.392 ns     (1.39 %)
Number of accepted tran steps =             544

Notice from spectre during transient analysis `tran'.
    Trapezoidal ringing is detected during tran analysis.
        Please use method=trap for better results and performance.


Maximum value achieved for any signal of each quantity: 
V: V(NM0:int_d) = 1.013 V
I: I(V1:p) = 25.31 uA
If your circuit contains signals of the same quantity that are vastly different in size (such as high voltage circuitry combined with low voltage control circuitry), you should consider specifying global option `bin_relref=yes'.

~~~~~~~~~~~~~~~~~~~~~~~~~~~~~~~~~
Post-Transient Simulation Summary
~~~~~~~~~~~~~~~~~~~~~~~~~~~~~~~~~
   -   To further speed up simulation, consider
          add ++aps on command line
~~~~~~~~~~~~~~~~~~~~~~~~~~~~~~~~~


During simulation, the CPU load for active processors is :
        Spectre  0 (8.3 %)       1 (36.7 %)      2 (3.3 %)       3 (1.7 %)
                 4 (2.5 %)       6 (23.5 %)      8 (6.7 %)      10 (6.7 %)
                12 (9.2 %)      14 (3.3 %)      16 (1.6 %)      18 (100.0 %)
                20 (11.6 %)     22 (10.1 %)     23 (3.3 %)      33 (1.7 %)
                44 (3.5 %)      
        Other   
Initial condition solution time: CPU = 536 us, elapsed = 538.111 us.
Intrinsic tran analysis time:    CPU = 37.343 ms, elapsed = 45.3861 ms.
Total time required for tran analysis `tran': CPU = 40.339 ms, elapsed = 51.5411 ms.
Time accumulated: CPU = 854.294 ms, elapsed = 1.28632 s.
Peak resident memory used = 77.2 Mbytes.


Notice from spectre.
    87 notices suppressed.

finalTimeOP: writing operating point information to rawfile.

Opening the PSF file ../psf/finalTimeOP.info ...
modelParameter: writing model parameter values to rawfile.

Opening the PSF file ../psf/modelParameter.info ...
element: writing instance parameter values to rawfile.

Opening the PSF file ../psf/element.info ...
outputParameter: writing output parameter values to rawfile.

Opening the PSF file ../psf/outputParameter.info ...
designParamVals: writing netlist parameters to rawfile.

Opening the PSFASCII file ../psf/designParamVals.info ...
primitives: writing primitives to rawfile.

Opening the PSFASCII file ../psf/primitives.info.primitives ...
subckts: writing subcircuits to rawfile.

Opening the PSFASCII file ../psf/subckts.info.subckts ...

Aggregate audit (9:30:05 PM, Wed Dec 21, 2022):
Time used: CPU = 874 ms, elapsed = 1.33 s, util. = 65.9%.
Time spent in licensing: elapsed = 13.1 ms.
Peak memory used = 78.9 Mbytes.
Simulation started at: 9:30:04 PM, Wed Dec 21, 2022, ended at: 9:30:05 PM, Wed Dec 21, 2022, with elapsed time (wall clock): 1.33 s.
spectre completes with 0 errors, 10 warnings, and 8 notices.


********* LOG ENDS **************
**                             **
