
Spectre (R) Circuit Simulator
Version 18.1.0.556.isr13 64bit -- 10 Dec 2019
Copyright (C) 1989-2019 Cadence Design Systems, Inc. All rights reserved worldwide. Cadence and Spectre are registered trademarks of Cadence Design Systems, Inc. All others are the property of their respective holders.

Includes RSA BSAFE(R) Cryptographic or Security Protocol Software from RSA Security, Inc.

User: edauser0   Host: selsrv1.epfl.ch   HostID: B28005F2   PID: 434
Memory  available: 7.4370 GB  physical: 134.9217 GB
Linux   : Red Hat Enterprise Linux Server release 7.8 (Maipo)
CPU Type: Intel(R) Xeon(R) CPU E5-2650 v4 @ 2.20GHz
        Socket: Processors [Frequency] (Hyperthreaded Processor)
        0:       0 [2547.0] ( 24 ),  2 [2594.8] ( 26 ),  4 [2544.4] ( 28 )
                 6 [2624.3] ( 30 ),  8 [2511.5] ( 32 ), 10 [2646.9] ( 34 )
                12 [2899.6] ( 36 ), 14 [2649.3] ( 38 ), 16 [2563.6] ( 40 )
                18 [2605.2] ( 42 ), 20 [2568.6] ( 44 ), 22 [2501.0] ( 46 )
        1:       1 [2807.3] ( 25 ),  3 [2589.5] ( 27 ),  5 [2704.7] ( 29 )
                 7 [2650.2] ( 31 ),  9 [2650.6] ( 33 ), 11 [2683.0] ( 35 )
                13 [2641.0] ( 37 ), 15 [2577.2] ( 39 ), 17 [2636.5] ( 41 )
                19 [2502.1] ( 43 ), 21 [2632.2] ( 45 ), 23 [2700.5] ( 47 )
        
System load averages (1min, 5min, 15min) : 3.9 %, 2.1 %, 2.1 %
Hyperthreading is enabled
HPC is enabled


Simulating `input.scs' on selsrv1.epfl.ch at 5:32:39 PM, Thur Dec 16, 2021 (process id: 434).
Current working directory: /home/edauser0/ayigit/RowDecoder_Project/CDS_VISIO/Sim/project_1x/RowDecoder_256_1xP_TB/adexl/results/data/Interactive.33/1/project_1x:RowDecoder_256_1xP_TB:1/netlist
Command line:
    /softs/cadence/spectre/18.10/tools/bin/spectre -64 input.scs  \
        +escchars +log ../psf/spectre.out -format psfxl -raw ../psf  \
        ++aps +lqtimeout 900 -maxw 5 -maxn 5 -ahdllibdir  \
        /home/edauser0/ayigit/RowDecoder_Project/CDS_VISIO/Sim/project_1x/RowDecoder_256_1xP_TB/adexl/results/data/Interactive.33/sharedData/CDS/ahdl/input.ahdlSimDB  \
        +logstatus

Loading /softs/cadence/spectre/18.10/tools.lnx86/cmi/lib/64bit/5.0/libinfineon_sh.so ...
Loading /softs/cadence/spectre/18.10/tools.lnx86/cmi/lib/64bit/5.0/libphilips_o_sh.so ...
Loading /softs/cadence/spectre/18.10/tools.lnx86/cmi/lib/64bit/5.0/libphilips_sh.so ...
Loading /softs/cadence/spectre/18.10/tools.lnx86/cmi/lib/64bit/5.0/libsparam_sh.so ...
Loading /softs/cadence/spectre/18.10/tools.lnx86/cmi/lib/64bit/5.0/libstmodels_sh.so ...
Reading file:  /home/edauser0/ayigit/RowDecoder_Project/CDS_VISIO/Sim/project_1x/RowDecoder_256_1xP_TB/adexl/results/data/Interactive.33/1/project_1x:RowDecoder_256_1xP_TB:1/netlist/input.scs
Reading file:  /softs/cadence/spectre/18.10/tools.lnx86/spectre/etc/configs/spectre.cfg
Reading file:  /dkits/umc/65nm/lms65ll/pdk_b09pb/Models/Spectre/l65ll_v151.lib.scs

Warning from spectre in `momcaps_symesh_mmkf', during circuit read-in.
    WARNING (SFE-2296): "/dkits/umc/65nm/lms65ll/pdk_b09pb/umc65ll/../Models/Spectre/l65ll_v151.lib.scs" 13269: The inline subckt definition `momcaps_symesh_mmkf' does not contain any inline components. The `inline' qualifier will therefore be ignored.
Warning from spectre in `momcaps_asmesh_mmkf', during circuit read-in.
    WARNING (SFE-2296): "/dkits/umc/65nm/lms65ll/pdk_b09pb/umc65ll/../Models/Spectre/l65ll_v151.lib.scs" 13355: The inline subckt definition `momcaps_asmesh_mmkf' does not contain any inline components. The `inline' qualifier will therefore be ignored.

Reading file:  /dkits/umc/65nm/lms65ll/pdk_b09pb/Models/Spectre/l65ll_res_v131_s.va
Reading link:  /softs/cadence/spectre/18.10/tools.lnx86/spectre/etc/ahdl/constants.h
Reading file:  /softs/cadence/spectre/18.10/tools.lnx86/spectre/etc/ahdl/constants.vams
Reading link:  /softs/cadence/spectre/18.10/tools.lnx86/spectre/etc/ahdl/discipline.h
Reading file:  /softs/cadence/spectre/18.10/tools.lnx86/spectre/etc/ahdl/disciplines.vams
Reading file:  /dkits/umc/65nm/lms65ll/pdk_b09pb/Models/Spectre/L65LL_RVT12_V101_RF.lib.scs
Reading file:  /dkits/umc/65nm/lms65ll/pdk_b09pb/Models/Spectre/L65LL_RVT12_V101_RF.mdl.scs
Reading file:  /dkits/umc/65nm/lms65ll/pdk_b09pb/Models/Spectre/Rde65.va
Reading file:  /dkits/umc/65nm/lms65ll/pdk_b09pb/Models/Spectre/L65LL_HVT12_V101_RF.lib.scs
Reading file:  /dkits/umc/65nm/lms65ll/pdk_b09pb/Models/Spectre/L65LL_HVT12_V101_RF.mdl.scs
Reading file:  /dkits/umc/65nm/lms65ll/pdk_b09pb/Models/Spectre/Rde_llhvtrfs.va
Reading file:  /dkits/umc/65nm/lms65ll/pdk_b09pb/Models/Spectre/L65LL_LVT12_V101_RF.lib.scs
Reading file:  /dkits/umc/65nm/lms65ll/pdk_b09pb/Models/Spectre/L65LL_LVT12_V101_RF.mdl.scs
Reading file:  /dkits/umc/65nm/lms65ll/pdk_b09pb/Models/Spectre/l65rflvt101s.va
Reading file:  /dkits/umc/65nm/lms65ll/pdk_b09pb/Models/Spectre/L65LL_IO18_V101_RF.lib.scs
Reading file:  /dkits/umc/65nm/lms65ll/pdk_b09pb/Models/Spectre/L65LL_IO18_V101_RF.mdl.scs
Reading file:  /dkits/umc/65nm/lms65ll/pdk_b09pb/Models/Spectre/L65LL_IO25_V101_RF.lib.scs
Reading file:  /dkits/umc/65nm/lms65ll/pdk_b09pb/Models/Spectre/L65LL_IO25_V101_RF.mdl.scs
Reading file:  /dkits/umc/65nm/lms65ll/pdk_b09pb/Models/Spectre/l65ll_25rf_101_s.va
Reading file:  /dkits/umc/65nm/lms65ll/pdk_b09pb/Models/Spectre/L65LL_IO33_V111_RF.lib.scs
Reading file:  /dkits/umc/65nm/lms65ll/pdk_b09pb/Models/Spectre/L65LL_IO33_V111_RF.mdl.scs
Reading file:  /dkits/umc/65nm/lms65ll/pdk_b09pb/Models/Spectre/Rde65LL_IO33_111.va.scs

Warning from spectre in `p_33_llrf', during circuit read-in.
    WARNING (SFE-2296): "/dkits/umc/65nm/lms65ll/pdk_b09pb/umc65ll/../Models/Spectre/L65LL_IO33_V111_RF.mdl.scs" 490: The inline subckt definition `p_33_llrf' does not contain any inline components. The `inline' qualifier will therefore be ignored.

Reading file:  /dkits/umc/65nm/lms65ll/pdk_b09pb/Models/Spectre/L65LL_VARMIS12_V111_RF.lib.scs
Reading file:  /dkits/umc/65nm/lms65ll/pdk_b09pb/Models/Spectre/L65LL_VARMIS12_V111_RF.mdl.scs
Reading file:  /dkits/umc/65nm/lms65ll/pdk_b09pb/Models/Spectre/L65LL_VARMIS18_V111_RF.lib.scs
Reading file:  /dkits/umc/65nm/lms65ll/pdk_b09pb/Models/Spectre/L65LL_VARMIS18_V111_RF.mdl.scs
Reading file:  /dkits/umc/65nm/lms65ll/pdk_b09pb/Models/Spectre/L65LL_VARMIS25_V121_RF.lib.scs
Reading file:  /dkits/umc/65nm/lms65ll/pdk_b09pb/Models/Spectre/L65LL_VARMIS25_V121_RF.mdl.scs
Reading file:  /dkits/umc/65nm/lms65ll/pdk_b09pb/Models/Spectre/L65LL_VARMIS33_V111_RF.lib.scs
Reading file:  /dkits/umc/65nm/lms65ll/pdk_b09pb/Models/Spectre/L65LL_VARMIS33_V111_RF.mdl.scs
Reading file:  /dkits/umc/65nm/lms65ll/pdk_b09pb/Models/Spectre/L65LL_VARDIOP_V101_RF.lib.scs
Reading file:  /dkits/umc/65nm/lms65ll/pdk_b09pb/Models/Spectre/L65LL_VARDIOP_V101_RF.mdl.scs
Reading file:  /dkits/umc/65nm/lms65ll/pdk_b09pb/Models/Spectre/momcaps_array_vp3_rfvcl_V101.lib.scs
Reading file:  /dkits/umc/65nm/lms65ll/pdk_b09pb/Models/Spectre/momcaps_array_vp3_rfvcl_V101.typ.scs
Reading file:  /dkits/umc/65nm/lms65ll/pdk_b09pb/Models/Spectre/momcaps_array_vp4_rfvcl_V101.lib.scs
Reading file:  /dkits/umc/65nm/lms65ll/pdk_b09pb/Models/Spectre/momcaps_array_vp4_rfvcl_V101.typ.scs
Reading file:  /dkits/umc/65nm/lms65ll/pdk_b09pb/Models/Spectre/momcaps_array_vp5_rfvcl_V101.lib.scs
Reading file:  /dkits/umc/65nm/lms65ll/pdk_b09pb/Models/Spectre/momcaps_array_vp5_rfvcl_V101.typ.scs
Reading file:  /dkits/umc/65nm/lms65ll/pdk_b09pb/Models/Spectre/L65_MIMCAPS_20F_KF_V101_RF.lib.scs
Reading file:  /dkits/umc/65nm/lms65ll/pdk_b09pb/Models/Spectre/L65_MIMCAPS_20F_KF_V101_RF.mdl.scs
Reading file:  /dkits/umc/65nm/lms65ll/pdk_b09pb/Models/Spectre/L65LL_RNPPO_V101_RF.lib.scs
Reading file:  /dkits/umc/65nm/lms65ll/pdk_b09pb/Models/Spectre/L65LL_RNPPO_V101_RF.mdl.scs
Reading file:  /dkits/umc/65nm/lms65ll/pdk_b09pb/Models/Spectre/res_poly.va
Reading file:  /dkits/umc/65nm/lms65ll/pdk_b09pb/Models/Spectre/L65LL_RNNPO_V101_RF.lib.scs
Reading file:  /dkits/umc/65nm/lms65ll/pdk_b09pb/Models/Spectre/L65LL_RNNPO_V101_RF.mdl.scs
Reading file:  /dkits/umc/65nm/lms65ll/pdk_b09pb/Models/Spectre/L65LL_RNHR_V101_RF.lib.scs
Reading file:  /dkits/umc/65nm/lms65ll/pdk_b09pb/Models/Spectre/L65LL_RNHR_V101_RF.mdl.scs
Reading file:  /dkits/umc/65nm/lms65ll/pdk_b09pb/Models/Spectre/L65_pad_rf_V101.lib.scs
Reading file:  /dkits/umc/65nm/lms65ll/pdk_b09pb/Models/Spectre/L65_pad_rf_V101.mdl.scs
Time for NDB Parsing: CPU = 804.08 ms, elapsed = 1.37113 s.
Time accumulated: CPU = 868.123 ms, elapsed = 1.37113 s.
Peak resident memory used = 62.5 Mbytes.


Warning from spectre during circuit read-in.
    WARNING (SFE-2654): VerilogA module `respoly_va' override primitive/(verilogA module) `respoly_va'.
    WARNING (SFE-2654): VerilogA module `respoly_va' override primitive/(verilogA module) `respoly_va'.

Existing shared object for module res_va is up to date.
Installed compiled interface for res_va.

Warning from spectre in `INV':`I18.I40', in `RowDecoder_256_1xP':`I18', during hierarchy flattening.
    WARNING (SFE-102): "input.scs" 60: Parameter `mis_flag', specified for model `n_12_llrvt' of primitive `bsim4', has been ignored because it is an invalid model parameter. Specify a valid model parameter and rerun the simulation. Type `spectre -h bsim4' to get more information on valid model parameters.
    WARNING (SFE-102): "input.scs" 60: Parameter `mf', specified for model `n_12_llrvt' of primitive `bsim4', has been ignored because it is an invalid model parameter. Specify a valid model parameter and rerun the simulation. Type `spectre -h bsim4' to get more information on valid model parameters.
    WARNING (SFE-102): "input.scs" 71: Parameter `mis_flag', specified for model `p_12_llrvt' of primitive `bsim4', has been ignored because it is an invalid model parameter. Specify a valid model parameter and rerun the simulation. Type `spectre -h bsim4' to get more information on valid model parameters.
    WARNING (SFE-102): "input.scs" 71: Parameter `mf', specified for model `p_12_llrvt' of primitive `bsim4', has been ignored because it is an invalid model parameter. Specify a valid model parameter and rerun the simulation. Type `spectre -h bsim4' to get more information on valid model parameters.
Warning from spectre in `INV':`I18.I1', in `RowDecoder_256_1xP':`I18', during hierarchy flattening.
    WARNING (SFE-102): "input.scs" 60: Parameter `mis_flag', specified for model `n_12_llrvt' of primitive `bsim4', has been ignored because it is an invalid model parameter. Specify a valid model parameter and rerun the simulation. Type `spectre -h bsim4' to get more information on valid model parameters.
        Further occurrences of this warning will be suppressed.

Time for Elaboration: CPU = 1.77927 s, elapsed = 1.78036 s.
Time accumulated: CPU = 2.64755 s, elapsed = 3.15166 s.
Peak resident memory used = 98.6 Mbytes.


Warning from spectre during hierarchy flattening.
    WARNING (SPECTRE-17101): The value 'psf' specified using the 'checklimitdest' option will no longer be supported in future releases.


Time for EDB Visiting: CPU = 401.248 ms, elapsed = 401.242 ms.
Time accumulated: CPU = 3.04902 s, elapsed = 3.55312 s.
Peak resident memory used = 126 Mbytes.


Global user options:
         psfversion = 1.1.0
            vabstol = 1e-06
            iabstol = 1e-12
               temp = 27
               gmin = 1e-12
             rforce = 1
           maxnotes = 5
           maxwarns = 5
             digits = 5
               cols = 80
             pivrel = 0.001
           sensfile = ../psf/sens.output
     checklimitdest = psf
               save = allpub
             reltol = 0.001
               tnom = 27
             scalem = 1
              scale = 1

Scoped user options:

Circuit inventory:
              nodes 6241
              bsim4 24176 
          capacitor 272   
             iprobe 16    
             res_va 2048  
            vsource 9     
           resistor 272   

Analysis and control statement inventory:
               info 7     
               tran 1     

Output statements:
             .probe 0     
           .measure 0     
               save 0     


Notice from spectre during initial setup.
    272 resistors are shorted because their absolute value is less than or equal to 'rabsshort'.
    Fast APS Enabled.
    16603 warnings suppressed.
    Multithreading Enabled: 8 threads in the system with 48 available processors.

Time for parsing: CPU = 500.874 ms, elapsed = 503.054 ms.
Time accumulated: CPU = 3.55004 s, elapsed = 4.05631 s.
Peak resident memory used = 139 Mbytes.

~~~~~~~~~~~~~~~~~~~~~~
Pre-Simulation Summary
~~~~~~~~~~~~~~~~~~~~~~
~~~~~~~~~~~~~~~~~~~~~~

************************************************
Transient Analysis `tran': time = (0 s -> 10 ns)
************************************************
DC simulation time: CPU = 842.513 ms, elapsed = 199.383 ms.

Opening the PSFXL file ../psf/tran.tran.tran ...
Important parameter values:
    start = 0 s
    outputstart = 0 s
    stop = 10 ns
    step = 10 ps
    maxstep = 200 ps
    ic = all
    useprevic = no
    skipdc = no
    reltol = 10e-03
    abstol(V) = 1 uV
    abstol(I) = 1 pA
    temp = 27 C
    tnom = 27 C
    tempeffects = all
    errpreset = liberal
    method = trapgear2
    lteratio = 3.5
    relref = sigglobal
    cmin = 0 F
    gmin = 1 pS
    rabsshort = 1 mOhm
    compression = wildcardonly


Output and IC/nodeset summary:
                 save   25      (current)
                 save   6241    (voltage)

    tran: time = 255.5 ps    (2.55 %), step = 8.015 ps    (80.1 m%)
    tran: time = 832.9 ps    (8.33 %), step = 90.7 ps      (907 m%)
    tran: time = 1.261 ns    (12.6 %), step = 60.35 ps     (604 m%)
    tran: time = 1.754 ns    (17.5 %), step = 81.99 ps     (820 m%)
    tran: time = 2.285 ns    (22.8 %), step = 42.58 ps     (426 m%)
    tran: time = 2.777 ns    (27.8 %), step = 106.5 ps     (1.07 %)
    tran: time = 3.268 ns    (32.7 %), step = 39.27 ps     (393 m%)
    tran: time = 3.752 ns    (37.5 %), step = 85.68 ps     (857 m%)
    tran: time = 4.283 ns    (42.8 %), step = 57.71 ps     (577 m%)
    tran: time = 4.878 ns    (48.8 %), step = 140.9 ps     (1.41 %)
    tran: time = 5.262 ns    (52.6 %), step = 50.59 ps     (506 m%)
    tran: time = 5.761 ns    (57.6 %), step = 87.05 ps     (871 m%)
    tran: time = 6.292 ns    (62.9 %), step = 61.18 ps     (612 m%)
    tran: time = 6.821 ns    (68.2 %), step = 143.1 ps     (1.43 %)
    tran: time = 7.28 ns     (72.8 %), step = 44.39 ps     (444 m%)
    tran: time = 7.862 ns    (78.6 %), step = 113.8 ps     (1.14 %)
    tran: time = 8.284 ns    (82.8 %), step = 52.79 ps     (528 m%)
    tran: time = 8.868 ns    (88.7 %), step = 131.6 ps     (1.32 %)
    tran: time = 9.28 ns     (92.8 %), step = 44.44 ps     (444 m%)
    tran: time = 9.864 ns    (98.6 %), step = 114.7 ps     (1.15 %)
Number of accepted tran steps =             427

Maximum value achieved for any signal of each quantity: 
V: V(I18.I35.net5) = 1.485 V
I: I(V0:p) = 334.9 mA
If your circuit contains signals of the same quantity that are vastly different in size (such as high voltage circuitry combined with low voltage control circuitry), you should consider specifying global option `bin_relref=yes'.

~~~~~~~~~~~~~~~~~~~~~~~~~~~~~~~~~
Post-Transient Simulation Summary
~~~~~~~~~~~~~~~~~~~~~~~~~~~~~~~~~
~~~~~~~~~~~~~~~~~~~~~~~~~~~~~~~~~


During simulation, the CPU load for active processors is :
        Spectre  0 (17.0 %)      1 (100.0 %)     2 (24.9 %)      3 (3.3 %)
                 4 (15.0 %)      5 (4.3 %)       6 (13.6 %)      8 (12.3 %)
                 9 (1.3 %)      10 (10.8 %)     11 (2.6 %)      12 (10.5 %)
                13 (1.7 %)      14 (19.1 %)     15 (1.6 %)      16 (25.3 %)
                18 (16.7 %)     19 (1.2 %)      20 (16.4 %)     22 (17.4 %)
                26 (44.5 %)     28 (11.9 %)     30 (2.3 %)      34 (11.9 %)
                38 (1.3 %)      39 (1.2 %)      44 (10.7 %)     
        Other   
Initial condition solution time: CPU = 843.015 ms, elapsed = 199.616 ms.
Intrinsic tran analysis time:    CPU = 10.0594 s, elapsed = 2.16141 s.
Total time required for tran analysis `tran': CPU = 10.9527 s, elapsed = 2.39649 s.
Time accumulated: CPU = 14.6588 s, elapsed = 6.65812 s.
Peak resident memory used = 200 Mbytes.

finalTimeOP: writing operating point information to rawfile.

Opening the PSF file ../psf/finalTimeOP.info ...
modelParameter: writing model parameter values to rawfile.

Opening the PSF file ../psf/modelParameter.info ...
element: writing instance parameter values to rawfile.

Opening the PSF file ../psf/element.info ...
outputParameter: writing output parameter values to rawfile.

Opening the PSF file ../psf/outputParameter.info ...
designParamVals: writing netlist parameters to rawfile.

Opening the PSFASCII file ../psf/designParamVals.info ...
primitives: writing primitives to rawfile.

Opening the PSFASCII file ../psf/primitives.info.primitives ...
subckts: writing subcircuits to rawfile.

Opening the PSFASCII file ../psf/subckts.info.subckts ...

Aggregate audit (5:32:47 PM, Thur Dec 16, 2021):
Time used: CPU = 15.7 s, elapsed = 7.97 s, util. = 196%.
Time spent in licensing: elapsed = 28.7 ms.
Peak memory used = 200 Mbytes.
Simulation started at: 5:32:39 PM, Thur Dec 16, 2021, ended at: 5:32:47 PM, Thur Dec 16, 2021, with elapsed time (wall clock): 7.97 s.
spectre completes with 0 errors, 11 warnings, and 5 notices.


********* LOG ENDS **************
**                             **
