
Spectre (R) Circuit Simulator
Version 18.1.0.556.isr13 64bit -- 10 Dec 2019
Copyright (C) 1989-2019 Cadence Design Systems, Inc. All rights reserved worldwide. Cadence and Spectre are registered trademarks of Cadence Design Systems, Inc. All others are the property of their respective holders.

Includes RSA BSAFE(R) Cryptographic or Security Protocol Software from RSA Security, Inc.

User: edauser0   Host: selsrv1.epfl.ch   HostID: B28005F2   PID: 46754
Memory  available: 11.4439 GB  physical: 134.9217 GB
Linux   : Red Hat Enterprise Linux Server release 7.8 (Maipo)
CPU Type: Intel(R) Xeon(R) CPU E5-2650 v4 @ 2.20GHz
        Socket: Processors [Frequency] (Hyperthreaded Processor)
        0:       0 [2516.1] ( 24 ),  2 [2511.7] ( 26 ),  4 [2525.6] ( 28 )
                 6 [2510.7] ( 30 ),  8 [2529.0] ( 32 ), 10 [2500.0] ( 34 )
                12 [2500.0] ( 36 ), 14 [2500.0] ( 38 ), 16 [2518.1] ( 40 )
                18 [2570.5] ( 42 ), 20 [2500.2] ( 44 ), 22 [2542.5] ( 46 )
        1:       1 [2668.2] ( 25 ),  3 [2532.7] ( 27 ),  5 [2560.7] ( 29 )
                 7 [2784.9] ( 31 ),  9 [2821.3] ( 33 ), 11 [2560.4] ( 35 )
                13 [2656.5] ( 37 ), 15 [2420.1] ( 39 ), 17 [2548.3] ( 41 )
                19 [2612.8] ( 43 ), 21 [2835.4] ( 45 ), 23 [2646.6] ( 47 )
        
System load averages (1min, 5min, 15min) : 1.7 %, 1.2 %, 1.4 %
Hyperthreading is enabled


Simulating `input.scs' on selsrv1.epfl.ch at 4:58:53 PM, Fri Dec 17, 2021 (process id: 46754).
Current working directory: /home/edauser0/ayigit/RowDecoder_Project/CDS_VISIO/Sim/project_1x/RowDecoder_256_1xP_TB/adexl/results/data/Interactive.42/1/project_1x:RowDecoder_256_1xP_TB:1/netlist
Command line:
    /softs/cadence/spectre/18.10/tools/bin/spectre -64 input.scs  \
        +escchars +log ../psf/spectre.out -format psfxl -raw ../psf  \
        +lqtimeout 900 -maxw 5 -maxn 5 -ahdllibdir  \
        /home/edauser0/ayigit/RowDecoder_Project/CDS_VISIO/Sim/project_1x/RowDecoder_256_1xP_TB/adexl/results/data/Interactive.42/sharedData/CDS/ahdl/input.ahdlSimDB  \
        +logstatus

Loading /softs/cadence/spectre/18.10/tools.lnx86/cmi/lib/64bit/5.0/libinfineon_sh.so ...
Loading /softs/cadence/spectre/18.10/tools.lnx86/cmi/lib/64bit/5.0/libphilips_o_sh.so ...
Loading /softs/cadence/spectre/18.10/tools.lnx86/cmi/lib/64bit/5.0/libphilips_sh.so ...
Loading /softs/cadence/spectre/18.10/tools.lnx86/cmi/lib/64bit/5.0/libsparam_sh.so ...
Loading /softs/cadence/spectre/18.10/tools.lnx86/cmi/lib/64bit/5.0/libstmodels_sh.so ...
Reading file:  /home/edauser0/ayigit/RowDecoder_Project/CDS_VISIO/Sim/project_1x/RowDecoder_256_1xP_TB/adexl/results/data/Interactive.42/1/project_1x:RowDecoder_256_1xP_TB:1/netlist/input.scs
Reading file:  /softs/cadence/spectre/18.10/tools.lnx86/spectre/etc/configs/spectre.cfg
Reading file:  /dkits/umc/65nm/lms65ll/pdk_b09pb/Models/Spectre/l65ll_v151.lib.scs

Warning from spectre in `momcaps_symesh_mmkf', during circuit read-in.
    WARNING (SFE-2296): "/dkits/umc/65nm/lms65ll/pdk_b09pb/umc65ll/../Models/Spectre/l65ll_v151.lib.scs" 13269: The inline subckt definition `momcaps_symesh_mmkf' does not contain any inline components. The `inline' qualifier will therefore be ignored.
Warning from spectre in `momcaps_asmesh_mmkf', during circuit read-in.
    WARNING (SFE-2296): "/dkits/umc/65nm/lms65ll/pdk_b09pb/umc65ll/../Models/Spectre/l65ll_v151.lib.scs" 13355: The inline subckt definition `momcaps_asmesh_mmkf' does not contain any inline components. The `inline' qualifier will therefore be ignored.

Reading file:  /dkits/umc/65nm/lms65ll/pdk_b09pb/Models/Spectre/l65ll_res_v131_s.va
Reading link:  /softs/cadence/spectre/18.10/tools.lnx86/spectre/etc/ahdl/constants.h
Reading file:  /softs/cadence/spectre/18.10/tools.lnx86/spectre/etc/ahdl/constants.vams
Reading link:  /softs/cadence/spectre/18.10/tools.lnx86/spectre/etc/ahdl/discipline.h
Reading file:  /softs/cadence/spectre/18.10/tools.lnx86/spectre/etc/ahdl/disciplines.vams
Reading file:  /dkits/umc/65nm/lms65ll/pdk_b09pb/Models/Spectre/L65LL_RVT12_V101_RF.lib.scs
Reading file:  /dkits/umc/65nm/lms65ll/pdk_b09pb/Models/Spectre/L65LL_RVT12_V101_RF.mdl.scs
Reading file:  /dkits/umc/65nm/lms65ll/pdk_b09pb/Models/Spectre/Rde65.va
Reading file:  /dkits/umc/65nm/lms65ll/pdk_b09pb/Models/Spectre/L65LL_HVT12_V101_RF.lib.scs
Reading file:  /dkits/umc/65nm/lms65ll/pdk_b09pb/Models/Spectre/L65LL_HVT12_V101_RF.mdl.scs
Reading file:  /dkits/umc/65nm/lms65ll/pdk_b09pb/Models/Spectre/Rde_llhvtrfs.va
Reading file:  /dkits/umc/65nm/lms65ll/pdk_b09pb/Models/Spectre/L65LL_LVT12_V101_RF.lib.scs
Reading file:  /dkits/umc/65nm/lms65ll/pdk_b09pb/Models/Spectre/L65LL_LVT12_V101_RF.mdl.scs
Reading file:  /dkits/umc/65nm/lms65ll/pdk_b09pb/Models/Spectre/l65rflvt101s.va
Reading file:  /dkits/umc/65nm/lms65ll/pdk_b09pb/Models/Spectre/L65LL_IO18_V101_RF.lib.scs
Reading file:  /dkits/umc/65nm/lms65ll/pdk_b09pb/Models/Spectre/L65LL_IO18_V101_RF.mdl.scs
Reading file:  /dkits/umc/65nm/lms65ll/pdk_b09pb/Models/Spectre/L65LL_IO25_V101_RF.lib.scs
Reading file:  /dkits/umc/65nm/lms65ll/pdk_b09pb/Models/Spectre/L65LL_IO25_V101_RF.mdl.scs
Reading file:  /dkits/umc/65nm/lms65ll/pdk_b09pb/Models/Spectre/l65ll_25rf_101_s.va
Reading file:  /dkits/umc/65nm/lms65ll/pdk_b09pb/Models/Spectre/L65LL_IO33_V111_RF.lib.scs
Reading file:  /dkits/umc/65nm/lms65ll/pdk_b09pb/Models/Spectre/L65LL_IO33_V111_RF.mdl.scs
Reading file:  /dkits/umc/65nm/lms65ll/pdk_b09pb/Models/Spectre/Rde65LL_IO33_111.va.scs

Warning from spectre in `p_33_llrf', during circuit read-in.
    WARNING (SFE-2296): "/dkits/umc/65nm/lms65ll/pdk_b09pb/umc65ll/../Models/Spectre/L65LL_IO33_V111_RF.mdl.scs" 490: The inline subckt definition `p_33_llrf' does not contain any inline components. The `inline' qualifier will therefore be ignored.

Reading file:  /dkits/umc/65nm/lms65ll/pdk_b09pb/Models/Spectre/L65LL_VARMIS12_V111_RF.lib.scs
Reading file:  /dkits/umc/65nm/lms65ll/pdk_b09pb/Models/Spectre/L65LL_VARMIS12_V111_RF.mdl.scs
Reading file:  /dkits/umc/65nm/lms65ll/pdk_b09pb/Models/Spectre/L65LL_VARMIS18_V111_RF.lib.scs
Reading file:  /dkits/umc/65nm/lms65ll/pdk_b09pb/Models/Spectre/L65LL_VARMIS18_V111_RF.mdl.scs
Reading file:  /dkits/umc/65nm/lms65ll/pdk_b09pb/Models/Spectre/L65LL_VARMIS25_V121_RF.lib.scs
Reading file:  /dkits/umc/65nm/lms65ll/pdk_b09pb/Models/Spectre/L65LL_VARMIS25_V121_RF.mdl.scs
Reading file:  /dkits/umc/65nm/lms65ll/pdk_b09pb/Models/Spectre/L65LL_VARMIS33_V111_RF.lib.scs
Reading file:  /dkits/umc/65nm/lms65ll/pdk_b09pb/Models/Spectre/L65LL_VARMIS33_V111_RF.mdl.scs
Reading file:  /dkits/umc/65nm/lms65ll/pdk_b09pb/Models/Spectre/L65LL_VARDIOP_V101_RF.lib.scs
Reading file:  /dkits/umc/65nm/lms65ll/pdk_b09pb/Models/Spectre/L65LL_VARDIOP_V101_RF.mdl.scs
Reading file:  /dkits/umc/65nm/lms65ll/pdk_b09pb/Models/Spectre/momcaps_array_vp3_rfvcl_V101.lib.scs
Reading file:  /dkits/umc/65nm/lms65ll/pdk_b09pb/Models/Spectre/momcaps_array_vp3_rfvcl_V101.typ.scs
Reading file:  /dkits/umc/65nm/lms65ll/pdk_b09pb/Models/Spectre/momcaps_array_vp4_rfvcl_V101.lib.scs
Reading file:  /dkits/umc/65nm/lms65ll/pdk_b09pb/Models/Spectre/momcaps_array_vp4_rfvcl_V101.typ.scs
Reading file:  /dkits/umc/65nm/lms65ll/pdk_b09pb/Models/Spectre/momcaps_array_vp5_rfvcl_V101.lib.scs
Reading file:  /dkits/umc/65nm/lms65ll/pdk_b09pb/Models/Spectre/momcaps_array_vp5_rfvcl_V101.typ.scs
Reading file:  /dkits/umc/65nm/lms65ll/pdk_b09pb/Models/Spectre/L65_MIMCAPS_20F_KF_V101_RF.lib.scs
Reading file:  /dkits/umc/65nm/lms65ll/pdk_b09pb/Models/Spectre/L65_MIMCAPS_20F_KF_V101_RF.mdl.scs
Reading file:  /dkits/umc/65nm/lms65ll/pdk_b09pb/Models/Spectre/L65LL_RNPPO_V101_RF.lib.scs
Reading file:  /dkits/umc/65nm/lms65ll/pdk_b09pb/Models/Spectre/L65LL_RNPPO_V101_RF.mdl.scs
Reading file:  /dkits/umc/65nm/lms65ll/pdk_b09pb/Models/Spectre/res_poly.va
Reading file:  /dkits/umc/65nm/lms65ll/pdk_b09pb/Models/Spectre/L65LL_RNNPO_V101_RF.lib.scs
Reading file:  /dkits/umc/65nm/lms65ll/pdk_b09pb/Models/Spectre/L65LL_RNNPO_V101_RF.mdl.scs
Reading file:  /dkits/umc/65nm/lms65ll/pdk_b09pb/Models/Spectre/L65LL_RNHR_V101_RF.lib.scs
Reading file:  /dkits/umc/65nm/lms65ll/pdk_b09pb/Models/Spectre/L65LL_RNHR_V101_RF.mdl.scs
Reading file:  /dkits/umc/65nm/lms65ll/pdk_b09pb/Models/Spectre/L65_pad_rf_V101.lib.scs
Reading file:  /dkits/umc/65nm/lms65ll/pdk_b09pb/Models/Spectre/L65_pad_rf_V101.mdl.scs
Reading file:  /home/edauser0/ayigit/RowDecoder_Project/CDS_VISIO/project_1x/Post_L8_256t8_Pex/spectreText/spectre.scs
Reading file:  /home/edauser0/ayigit/RowDecoder_Project/CDS_VISIO/project_1x/Post_L8_256t8_Pex/spectreText/spectre.scs.pex
Reading file:  /home/edauser0/ayigit/RowDecoder_Project/CDS_VISIO/project_1x/Post_L8_256t8_Pex/spectreText/spectre.scs.POST_L8_256T8_PEX.pxi
Time for NDB Parsing: CPU = 1.00958 s, elapsed = 1.21868 s.
Time accumulated: CPU = 1.06894 s, elapsed = 1.21868 s.
Peak resident memory used = 72.3 Mbytes.


Warning from spectre during circuit read-in.
    WARNING (SFE-2654): VerilogA module `respoly_va' override primitive/(verilogA module) `respoly_va'.
    WARNING (SFE-2654): VerilogA module `respoly_va' override primitive/(verilogA module) `respoly_va'.

Existing shared object for module res_va is up to date.
Installed compiled interface for res_va.

Warning from spectre in `Post_L8_256t8_Pex':`I18.I7.I0', in `Post_L8_256t8_ex':`I18.I7', in `RowDecoder_256_1xP':`I18', during hierarchy flattening.
    WARNING (SFE-103): "/home/edauser0/ayigit/RowDecoder_Project/CDS_VISIO/project_1x/Post_L8_256t8_Pex/spectreText/spectre.scs" 2453: Subcircuit parameter `res', defined for subcircuit `r_1x_ll', has been ignored because it is invalid. Check the parameters that are defined for the instantiated subcircuit and rerun the simulation.
    WARNING (SFE-103): "/home/edauser0/ayigit/RowDecoder_Project/CDS_VISIO/project_1x/Post_L8_256t8_Pex/spectreText/spectre.scs" 2458: Subcircuit parameter `res', defined for subcircuit `r_1x_ll', has been ignored because it is invalid. Check the parameters that are defined for the instantiated subcircuit and rerun the simulation.
    WARNING (SFE-103): "/home/edauser0/ayigit/RowDecoder_Project/CDS_VISIO/project_1x/Post_L8_256t8_Pex/spectreText/spectre.scs" 2463: Subcircuit parameter `res', defined for subcircuit `r_1x_ll', has been ignored because it is invalid. Check the parameters that are defined for the instantiated subcircuit and rerun the simulation.
    WARNING (SFE-103): "/home/edauser0/ayigit/RowDecoder_Project/CDS_VISIO/project_1x/Post_L8_256t8_Pex/spectreText/spectre.scs" 2468: Subcircuit parameter `res', defined for subcircuit `r_1x_ll', has been ignored because it is invalid. Check the parameters that are defined for the instantiated subcircuit and rerun the simulation.
    WARNING (SFE-103): "/home/edauser0/ayigit/RowDecoder_Project/CDS_VISIO/project_1x/Post_L8_256t8_Pex/spectreText/spectre.scs" 2473: Subcircuit parameter `res', defined for subcircuit `r_1x_ll', has been ignored because it is invalid. Check the parameters that are defined for the instantiated subcircuit and rerun the simulation.
        Further occurrences of this warning will be suppressed.
Warning from spectre in `INV':`I18.I40', in `RowDecoder_256_1xP':`I18', during hierarchy flattening.
    WARNING (SFE-102): "input.scs" 59: Parameter `mis_flag', specified for model `n_12_llrvt' of primitive `bsim4', has been ignored because it is an invalid model parameter. Specify a valid model parameter and rerun the simulation. Type `spectre -h bsim4' to get more information on valid model parameters.
    WARNING (SFE-102): "input.scs" 59: Parameter `mf', specified for model `n_12_llrvt' of primitive `bsim4', has been ignored because it is an invalid model parameter. Specify a valid model parameter and rerun the simulation. Type `spectre -h bsim4' to get more information on valid model parameters.
    WARNING (SFE-102): "input.scs" 70: Parameter `mis_flag', specified for model `p_12_llrvt' of primitive `bsim4', has been ignored because it is an invalid model parameter. Specify a valid model parameter and rerun the simulation. Type `spectre -h bsim4' to get more information on valid model parameters.
    WARNING (SFE-102): "input.scs" 70: Parameter `mf', specified for model `p_12_llrvt' of primitive `bsim4', has been ignored because it is an invalid model parameter. Specify a valid model parameter and rerun the simulation. Type `spectre -h bsim4' to get more information on valid model parameters.
Warning from spectre in `INV':`I18.I1', in `RowDecoder_256_1xP':`I18', during hierarchy flattening.
    WARNING (SFE-102): "input.scs" 59: Parameter `mis_flag', specified for model `n_12_llrvt' of primitive `bsim4', has been ignored because it is an invalid model parameter. Specify a valid model parameter and rerun the simulation. Type `spectre -h bsim4' to get more information on valid model parameters.
        Further occurrences of this warning will be suppressed.

Time for Elaboration: CPU = 2.25168 s, elapsed = 2.2529 s.
Time accumulated: CPU = 3.32082 s, elapsed = 3.47178 s.
Peak resident memory used = 168 Mbytes.


Warning from spectre during hierarchy flattening.
    WARNING (SPECTRE-17101): The value 'psf' specified using the 'checklimitdest' option will no longer be supported in future releases.


Time for EDB Visiting: CPU = 944.405 ms, elapsed = 944.396 ms.
Time accumulated: CPU = 4.2655 s, elapsed = 4.41645 s.
Peak resident memory used = 280 Mbytes.


Global user options:
         psfversion = 1.1.0
            vabstol = 1e-06
            iabstol = 1e-12
               temp = 27
               gmin = 1e-12
             rforce = 1
           maxnotes = 5
           maxwarns = 5
             digits = 5
               cols = 80
             pivrel = 0.001
           sensfile = ../psf/sens.output
     checklimitdest = psf
               save = allpub
             reltol = 0.001
               tnom = 27
             scalem = 1
              scale = 1

Scoped user options:

Circuit inventory:
              nodes 15317
              bsim4 24176 
          capacitor 13539 
             iprobe 16    
             res_va 2048  
           resistor 9348  
            vsource 9     

Analysis and control statement inventory:
               info 7     
               tran 1     

Output statements:
             .probe 0     
           .measure 0     
               save 1     


Notice from spectre during initial setup.
    256 resistors are changed to resistance form because their value are less than 'rthresh'.
    50390 warnings suppressed.

Time for parsing: CPU = 4.84195 s, elapsed = 4.84312 s.
Time accumulated: CPU = 9.10765 s, elapsed = 9.25976 s.
Peak resident memory used = 319 Mbytes.

~~~~~~~~~~~~~~~~~~~~~~
Pre-Simulation Summary
~~~~~~~~~~~~~~~~~~~~~~
~~~~~~~~~~~~~~~~~~~~~~

************************************************
Transient Analysis `tran': time = (0 s -> 10 ns)
************************************************

Notice from spectre during IC analysis, during transient analysis `tran'.
    GminDC = 1 pS is large enough to noticeably affect the DC solution.
        dV(I18.IPost<0>.I2.PM1:int_s) = -12.8254 mV
        Use the `gmin_check' option to eliminate or expand this report.

DC simulation time: CPU = 25.5805 s, elapsed = 25.5802 s.

Opening the PSFXL file ../psf/tran.tran.tran ...
Important parameter values:
    start = 0 s
    outputstart = 0 s
    stop = 10 ns
    step = 10 ps
    maxstep = 200 ps
    ic = all
    useprevic = no
    skipdc = no
    reltol = 10e-03
    abstol(V) = 1 uV
    abstol(I) = 1 pA
    temp = 27 C
    tnom = 27 C
    tempeffects = all
    errpreset = liberal
    method = trapgear2
    lteratio = 3.5
    relref = sigglobal
    cmin = 0 F
    gmin = 1 pS


Output and IC/nodeset summary:
                 save   25      (current)
                 save   15317   (voltage)

    tran: time = 10 fs       (100 u%), step = 10 fs        (100 u%)
    tran: time = 270 ps       (2.7 %), step = 92.52 ps     (925 m%)
    tran: time = 782.4 ps    (7.82 %), step = 149.1 ps     (1.49 %)
    tran: time = 1.063 ns    (10.6 %), step = 6.507 ps    (65.1 m%)
    tran: time = 1.256 ns    (12.6 %), step = 14.3 ps      (143 m%)
    tran: time = 1.69 ns     (16.9 %), step = 17.63 ps     (176 m%)
    tran: time = 1.758 ns    (17.6 %), step = 12.51 ps     (125 m%)
    tran: time = 2.037 ns    (20.4 %), step = 6.663 ps    (66.6 m%)
    tran: time = 2.272 ns    (22.7 %), step = 87.85 ps     (878 m%)
    tran: time = 2.76 ns     (27.6 %), step = 20.07 ps     (201 m%)
    tran: time = 3 ns          (30 %), step = 16.18 fs     (162 u%)
    tran: time = 3.292 ns    (32.9 %), step = 67.61 ps     (676 m%)
    tran: time = 3.76 ns     (37.6 %), step = 54.94 ps     (549 m%)
    tran: time = 4.056 ns    (40.6 %), step = 5.932 ps    (59.3 m%)
    tran: time = 4.263 ns    (42.6 %), step = 82.92 ps     (829 m%)
    tran: time = 4.765 ns    (47.6 %), step = 52.09 ps     (521 m%)
    tran: time = 5.006 ns    (50.1 %), step = 2.979 ps    (29.8 m%)
    tran: time = 5.25 ns     (52.5 %), step = 10.49 ps     (105 m%)
    tran: time = 5.758 ns    (57.6 %), step = 65.61 ps     (656 m%)
    tran: time = 6.025 ns    (60.3 %), step = 4.495 ps    (44.9 m%)
    tran: time = 6.267 ns    (62.7 %), step = 84.92 ps     (849 m%)
    tran: time = 6.755 ns    (67.6 %), step = 5.682 ps    (56.8 m%)
    tran: time = 7.036 ns    (70.4 %), step = 6.1 ps        (61 m%)
    tran: time = 7.255 ns    (72.5 %), step = 15.7 ps      (157 m%)
    tran: time = 7.756 ns    (77.6 %), step = 16.29 ps     (163 m%)
    tran: time = 8.017 ns    (80.2 %), step = 1.678 ps    (16.8 m%)
    tran: time = 8.261 ns    (82.6 %), step = 81.98 ps     (820 m%)
    tran: time = 8.753 ns    (87.5 %), step = 16.15 ps     (161 m%)
    tran: time = 9.015 ns    (90.2 %), step = 4.738 ps    (47.4 m%)
    tran: time = 9.275 ns    (92.8 %), step = 47.88 ps     (479 m%)
    tran: time = 9.668 ns    (96.7 %), step = 18.4 ps      (184 m%)
    tran: time = 9.761 ns    (97.6 %), step = 15.8 ps      (158 m%)
Number of accepted tran steps =             632

Maximum value achieved for any signal of each quantity: 
V: V(I18.I27.I0.NM0:int_d) = 1.5 V
I: I(V0:p) = 313.9 mA
If your circuit contains signals of the same quantity that are vastly different in size (such as high voltage circuitry combined with low voltage control circuitry), you should consider specifying global option `bin_relref=yes'.

~~~~~~~~~~~~~~~~~~~~~~~~~~~~~~~~~
Post-Transient Simulation Summary
~~~~~~~~~~~~~~~~~~~~~~~~~~~~~~~~~
   -   To further speed up simulation, consider
          add ++aps on command line
~~~~~~~~~~~~~~~~~~~~~~~~~~~~~~~~~


During simulation, the CPU load for active processors is :
        Spectre  0 (11.5 %)      1 (15.7 %)      2 (6.9 %)       3 (13.7 %)
                 4 (4.3 %)       5 (14.7 %)      6 (4.1 %)       7 (2.2 %)
                 8 (3.5 %)       9 (1.2 %)      10 (3.0 %)      12 (1.5 %)
                13 (11.3 %)     14 (6.6 %)      16 (7.8 %)      17 (10.1 %)
                18 (12.6 %)     19 (3.6 %)      20 (1.4 %)      21 (4.7 %)
                22 (1.3 %)      23 (1.4 %)      24 (2.9 %)      26 (2.5 %)
                27 (1.8 %)      30 (1.7 %)      41 (1.0 %)      
        Other   
Initial condition solution time: CPU = 25.5807 s, elapsed = 25.5803 s.
Intrinsic tran analysis time:    CPU = 231.098 s, elapsed = 231.198 s.
Total time required for tran analysis `tran': CPU = 263.229 s (4m  23.2s), elapsed = 263.331 s (4m  23.3s).
Time accumulated: CPU = 273.231 s (4m  33.2s), elapsed = 274.066 s (4m  34.1s).
Peak resident memory used = 729 Mbytes.

finalTimeOP: writing operating point information to rawfile.

Opening the PSF file ../psf/finalTimeOP.info ...
modelParameter: writing model parameter values to rawfile.

Opening the PSF file ../psf/modelParameter.info ...
element: writing instance parameter values to rawfile.

Opening the PSF file ../psf/element.info ...
outputParameter: writing output parameter values to rawfile.

Opening the PSF file ../psf/outputParameter.info ...
designParamVals: writing netlist parameters to rawfile.

Opening the PSFASCII file ../psf/designParamVals.info ...
primitives: writing primitives to rawfile.

Opening the PSFASCII file ../psf/primitives.info.primitives ...
subckts: writing subcircuits to rawfile.

Opening the PSFASCII file ../psf/subckts.info.subckts ...

Aggregate audit (5:03:31 PM, Fri Dec 17, 2021):
Time used: CPU = 276 s (4m  36.2s), elapsed = 278 s (4m  37.5s), util. = 99.5%.
Time spent in licensing: elapsed = 14.1 ms.
Peak memory used = 730 Mbytes.
Simulation started at: 4:58:53 PM, Fri Dec 17, 2021, ended at: 5:03:31 PM, Fri Dec 17, 2021, with elapsed time (wall clock): 278 s (4m  37.5s).
spectre completes with 0 errors, 16 warnings, and 4 notices.
